version 2
run General-0-20141207-12:15:30-4148
attr configname General
attr datetime 20141207-12:15:30
attr experiment General
attr inifile omnetpp.ini
attr iterationvars ""
attr iterationvars2 $repetition=0
attr measurement ""
attr network Leach
attr processid 4148
attr repetition 0
attr replication #0
attr resultdir results
attr runnumber 0
attr seedset 0

scalar Leach.sink 	(unnamed) 	9.957906762
scalar Leach.sink 	(unnamed) 	9.915904322
scalar Leach.sink 	(unnamed) 	9.873968068
scalar Leach.sink 	(unnamed) 	9.83200804
scalar Leach.sink 	(unnamed) 	9.789917546
scalar Leach.sink 	(unnamed) 	9.747924786
scalar Leach.sink 	(unnamed) 	9.705964278
scalar Leach.sink 	(unnamed) 	9.663836288
scalar Leach.sink 	(unnamed) 	9.621616832
scalar Leach.sink 	(unnamed) 	9.579229538
scalar Leach.sink 	(unnamed) 	9.537031296
scalar Leach.sink 	(unnamed) 	9.49465892
scalar Leach.sink 	"Fist dead node: " 	0
scalar Leach.sink 	"At round: " 	0
scalar Leach.sink 	"Total dead node: " 	0
scalar Leach.sink 	"TotalRound: " 	13
version 2
run General-0-20141207-12:16:31-4148
attr configname General
attr datetime 20141207-12:16:31
attr experiment General
attr inifile omnetpp.ini
attr iterationvars ""
attr iterationvars2 $repetition=0
attr measurement ""
attr network Leach
attr processid 4148
attr repetition 0
attr replication #0
attr resultdir results
attr runnumber 0
attr seedset 0

scalar Leach.sink 	(unnamed) 	9.957906762
scalar Leach.sink 	(unnamed) 	9.915904322
scalar Leach.sink 	(unnamed) 	9.873968068
scalar Leach.sink 	(unnamed) 	9.83200804
scalar Leach.sink 	(unnamed) 	9.789917546
scalar Leach.sink 	(unnamed) 	9.747924786
scalar Leach.sink 	(unnamed) 	9.705964278
scalar Leach.sink 	(unnamed) 	9.663836288
scalar Leach.sink 	(unnamed) 	9.621616832
scalar Leach.sink 	(unnamed) 	9.579229538
scalar Leach.sink 	(unnamed) 	9.537031296
scalar Leach.sink 	(unnamed) 	9.49465892
scalar Leach.sink 	"Fist dead node: " 	0
scalar Leach.sink 	"At round: " 	0
scalar Leach.sink 	"Total dead node: " 	0
scalar Leach.sink 	"TotalRound: " 	13
version 2
run General-0-20141207-12:18:19-4684
attr configname General
attr datetime 20141207-12:18:19
attr experiment General
attr inifile omnetpp.ini
attr iterationvars ""
attr iterationvars2 $repetition=0
attr measurement ""
attr network Leach
attr processid 4684
attr repetition 0
attr replication #0
attr resultdir results
attr runnumber 0
attr seedset 0

scalar Leach.sink 	(unnamed) 	9.957906762
scalar Leach.sink 	(unnamed) 	9.915904322
scalar Leach.sink 	(unnamed) 	9.873968068
scalar Leach.sink 	(unnamed) 	9.83200804
scalar Leach.sink 	(unnamed) 	9.789917546
scalar Leach.sink 	(unnamed) 	9.747924786
scalar Leach.sink 	(unnamed) 	9.705964278
scalar Leach.sink 	(unnamed) 	9.663836288
scalar Leach.sink 	(unnamed) 	9.621616832
scalar Leach.sink 	(unnamed) 	9.579229538
scalar Leach.sink 	(unnamed) 	9.537031296
scalar Leach.sink 	(unnamed) 	9.49465892
scalar Leach.sink 	"Fist dead node: " 	0
scalar Leach.sink 	"At round: " 	0
scalar Leach.sink 	"Total dead node: " 	0
scalar Leach.sink 	"TotalRound: " 	13
version 2
run General-0-20141207-12:56:11-4788
attr configname General
attr datetime 20141207-12:56:11
attr experiment General
attr inifile omnetpp.ini
attr iterationvars ""
attr iterationvars2 $repetition=0
attr measurement ""
attr network Leach
attr processid 4788
attr repetition 0
attr replication #0
attr resultdir results
attr runnumber 0
attr seedset 0

scalar Leach.sink 	(unnamed) 	9.957986604
scalar Leach.sink 	(unnamed) 	9.916063376
scalar Leach.sink 	(unnamed) 	9.874184032
scalar Leach.sink 	(unnamed) 	9.832279654
scalar Leach.sink 	(unnamed) 	9.79023221
scalar Leach.sink 	(unnamed) 	9.748278762
scalar Leach.sink 	(unnamed) 	9.706339044
scalar Leach.sink 	(unnamed) 	9.664228694
scalar Leach.sink 	(unnamed) 	9.621998226
scalar Leach.sink 	(unnamed) 	9.579776492
scalar Leach.sink 	(unnamed) 	9.537411046
scalar Leach.sink 	(unnamed) 	9.495100434
scalar Leach.sink 	(unnamed) 	9.453081952
scalar Leach.sink 	(unnamed) 	9.410998072
scalar Leach.sink 	(unnamed) 	9.369081884
scalar Leach.sink 	(unnamed) 	9.326858624
scalar Leach.sink 	(unnamed) 	9.284606952
scalar Leach.sink 	(unnamed) 	9.242142278
scalar Leach.sink 	(unnamed) 	9.200071094
scalar Leach.sink 	(unnamed) 	9.157913636
scalar Leach.sink 	(unnamed) 	9.11571641
scalar Leach.sink 	(unnamed) 	9.073538854
scalar Leach.sink 	(unnamed) 	9.031360776
scalar Leach.sink 	(unnamed) 	8.989009836
scalar Leach.sink 	(unnamed) 	8.94709579
scalar Leach.sink 	(unnamed) 	8.904911724
scalar Leach.sink 	(unnamed) 	8.862826368
scalar Leach.sink 	(unnamed) 	8.820668472
scalar Leach.sink 	(unnamed) 	8.77858743
scalar Leach.sink 	(unnamed) 	8.736521726
scalar Leach.sink 	(unnamed) 	8.694403452
scalar Leach.sink 	(unnamed) 	8.652064972
scalar Leach.sink 	(unnamed) 	8.609648018
scalar Leach.sink 	(unnamed) 	8.5672637
scalar Leach.sink 	(unnamed) 	8.52465375
scalar Leach.sink 	(unnamed) 	8.48197403
scalar Leach.sink 	(unnamed) 	8.44018731
scalar Leach.sink 	(unnamed) 	8.398237994
scalar Leach.sink 	(unnamed) 	8.355979598
scalar Leach.sink 	(unnamed) 	8.313872816
scalar Leach.sink 	(unnamed) 	8.271986538
scalar Leach.sink 	(unnamed) 	8.229923822
scalar Leach.sink 	(unnamed) 	8.187920618
scalar Leach.sink 	(unnamed) 	8.14583672
scalar Leach.sink 	(unnamed) 	8.10375242
scalar Leach.sink 	(unnamed) 	8.061557936
scalar Leach.sink 	(unnamed) 	8.019145576
scalar Leach.sink 	(unnamed) 	7.976489622
scalar Leach.sink 	(unnamed) 	7.934282776
scalar Leach.sink 	(unnamed) 	7.89212318
scalar Leach.sink 	(unnamed) 	7.849951226
scalar Leach.sink 	(unnamed) 	7.807603044
scalar Leach.sink 	(unnamed) 	7.765328508
scalar Leach.sink 	(unnamed) 	7.72292777
scalar Leach.sink 	(unnamed) 	7.68090078
scalar Leach.sink 	(unnamed) 	7.638841154
scalar Leach.sink 	(unnamed) 	7.596873922
scalar Leach.sink 	(unnamed) 	7.554745216
scalar Leach.sink 	(unnamed) 	7.512476034
scalar Leach.sink 	(unnamed) 	7.469980924
scalar Leach.sink 	(unnamed) 	7.428098866
scalar Leach.sink 	(unnamed) 	7.386104432
scalar Leach.sink 	(unnamed) 	7.34407958
scalar Leach.sink 	(unnamed) 	7.30194285
scalar Leach.sink 	(unnamed) 	7.259552702
scalar Leach.sink 	(unnamed) 	7.217417048
scalar Leach.sink 	(unnamed) 	7.175273304
scalar Leach.sink 	(unnamed) 	7.13305573
scalar Leach.sink 	(unnamed) 	7.0906279279999
scalar Leach.sink 	(unnamed) 	7.04816318
scalar Leach.sink 	(unnamed) 	7.0057000819999
scalar Leach.sink 	(unnamed) 	6.9630228839999
scalar Leach.sink 	(unnamed) 	6.9212467279999
scalar Leach.sink 	(unnamed) 	6.8794219679999
scalar Leach.sink 	(unnamed) 	6.8374174499999
scalar Leach.sink 	(unnamed) 	6.795260086
scalar Leach.sink 	(unnamed) 	6.7530886099999
scalar Leach.sink 	(unnamed) 	6.7108814759999
scalar Leach.sink 	(unnamed) 	6.6688666099999
scalar Leach.sink 	(unnamed) 	6.6265926799999
scalar Leach.sink 	(unnamed) 	6.5844911699999
scalar Leach.sink 	(unnamed) 	6.5423320739999
scalar Leach.sink 	(unnamed) 	6.5000132199999
scalar Leach.sink 	(unnamed) 	6.4576755099999
scalar Leach.sink 	(unnamed) 	6.4157765819999
scalar Leach.sink 	(unnamed) 	6.3736810479999
scalar Leach.sink 	(unnamed) 	6.3312179159999
scalar Leach.sink 	(unnamed) 	6.2886286559999
scalar Leach.sink 	(unnamed) 	6.2462088659999
scalar Leach.sink 	(unnamed) 	6.2037610419999
scalar Leach.sink 	(unnamed) 	6.1616971379999
scalar Leach.sink 	(unnamed) 	6.1199443599999
scalar Leach.sink 	(unnamed) 	6.0780451639999
scalar Leach.sink 	(unnamed) 	6.0358552679999
scalar Leach.sink 	(unnamed) 	5.9935901179999
scalar Leach.sink 	(unnamed) 	5.9511854899999
scalar Leach.sink 	(unnamed) 	5.9091713419999
scalar Leach.sink 	(unnamed) 	5.8671236819999
scalar Leach.sink 	(unnamed) 	5.8248379719999
scalar Leach.sink 	(unnamed) 	5.7828314719999
scalar Leach.sink 	(unnamed) 	5.7407809759999
scalar Leach.sink 	(unnamed) 	5.6987623719999
scalar Leach.sink 	(unnamed) 	5.6566205239999
scalar Leach.sink 	(unnamed) 	5.6141575759999
scalar Leach.sink 	(unnamed) 	5.5719267579999
scalar Leach.sink 	(unnamed) 	5.5294493339999
scalar Leach.sink 	(unnamed) 	5.4867778559999
scalar Leach.sink 	(unnamed) 	5.4438526859999
scalar Leach.sink 	(unnamed) 	5.4019892399999
scalar Leach.sink 	(unnamed) 	5.3602054879999
scalar Leach.sink 	(unnamed) 	5.3183294099999
scalar Leach.sink 	(unnamed) 	5.2764025639999
scalar Leach.sink 	(unnamed) 	5.2345049499999
scalar Leach.sink 	(unnamed) 	5.1924970979999
scalar Leach.sink 	(unnamed) 	5.1503218159999
scalar Leach.sink 	(unnamed) 	5.1081442199999
scalar Leach.sink 	(unnamed) 	5.0656945379999
scalar Leach.sink 	(unnamed) 	5.0234543059999
scalar Leach.sink 	(unnamed) 	4.9810998979999
scalar Leach.sink 	(unnamed) 	4.9390298379999
scalar Leach.sink 	(unnamed) 	4.8967373719999
scalar Leach.sink 	(unnamed) 	4.8546545719999
scalar Leach.sink 	(unnamed) 	4.8123619679999
scalar Leach.sink 	(unnamed) 	4.7701587679999
scalar Leach.sink 	(unnamed) 	4.7279903199999
scalar Leach.sink 	(unnamed) 	4.6855468819999
scalar Leach.sink 	(unnamed) 	4.6434392319999
scalar Leach.sink 	(unnamed) 	4.6011926119999
scalar Leach.sink 	(unnamed) 	4.5591461819999
scalar Leach.sink 	(unnamed) 	4.5170803579999
scalar Leach.sink 	(unnamed) 	4.4749752179999
scalar Leach.sink 	(unnamed) 	4.4328895759999
scalar Leach.sink 	(unnamed) 	4.3907009419999
scalar Leach.sink 	(unnamed) 	4.3485963839999
scalar Leach.sink 	(unnamed) 	4.3062404359999
scalar Leach.sink 	(unnamed) 	4.2642628519999
scalar Leach.sink 	(unnamed) 	4.2222635419999
scalar Leach.sink 	(unnamed) 	4.1802647239999
scalar Leach.sink 	(unnamed) 	4.1380414939999
scalar Leach.sink 	(unnamed) 	4.0958013319999
scalar Leach.sink 	(unnamed) 	4.0531587119999
scalar Leach.sink 	(unnamed) 	4.0107190219999
scalar Leach.sink 	(unnamed) 	3.9683788479999
scalar Leach.sink 	(unnamed) 	3.9260275639999
scalar Leach.sink 	"Fist dead node: " 	0
scalar Leach.sink 	"At round: " 	0
scalar Leach.sink 	"Total dead node: " 	0
scalar Leach.sink 	"TotalRound: " 	145
version 2
run General-0-20141207-13:01:34-4288
attr configname General
attr datetime 20141207-13:01:34
attr experiment General
attr inifile omnetpp.ini
attr iterationvars ""
attr iterationvars2 $repetition=0
attr measurement ""
attr network Leach
attr processid 4288
attr repetition 0
attr replication #0
attr resultdir results
attr runnumber 0
attr seedset 0

scalar Leach.sink 	(unnamed) 	9.957986604
scalar Leach.sink 	(unnamed) 	9.916063376
scalar Leach.sink 	(unnamed) 	9.874184032
scalar Leach.sink 	(unnamed) 	9.832279654
scalar Leach.sink 	(unnamed) 	9.79023221
scalar Leach.sink 	(unnamed) 	9.748278762
scalar Leach.sink 	(unnamed) 	9.706339044
scalar Leach.sink 	(unnamed) 	9.664228694
scalar Leach.sink 	(unnamed) 	9.621998226
scalar Leach.sink 	(unnamed) 	9.579776492
scalar Leach.sink 	(unnamed) 	9.537411046
scalar Leach.sink 	(unnamed) 	9.495100434
scalar Leach.sink 	(unnamed) 	9.453081952
scalar Leach.sink 	(unnamed) 	9.410998072
scalar Leach.sink 	(unnamed) 	9.369081884
scalar Leach.sink 	(unnamed) 	9.326858624
scalar Leach.sink 	(unnamed) 	9.284606952
scalar Leach.sink 	(unnamed) 	9.242142278
scalar Leach.sink 	(unnamed) 	9.200071094
scalar Leach.sink 	(unnamed) 	9.157913636
scalar Leach.sink 	(unnamed) 	9.11571641
scalar Leach.sink 	(unnamed) 	9.073538854
scalar Leach.sink 	(unnamed) 	9.031360776
scalar Leach.sink 	(unnamed) 	8.989009836
scalar Leach.sink 	(unnamed) 	8.94709579
scalar Leach.sink 	(unnamed) 	8.904911724
scalar Leach.sink 	(unnamed) 	8.862826368
scalar Leach.sink 	(unnamed) 	8.820668472
scalar Leach.sink 	(unnamed) 	8.77858743
scalar Leach.sink 	(unnamed) 	8.736521726
scalar Leach.sink 	(unnamed) 	8.694403452
scalar Leach.sink 	(unnamed) 	8.652064972
scalar Leach.sink 	(unnamed) 	8.609648018
scalar Leach.sink 	(unnamed) 	8.5672637
scalar Leach.sink 	(unnamed) 	8.52465375
scalar Leach.sink 	(unnamed) 	8.48197403
scalar Leach.sink 	(unnamed) 	8.44018731
scalar Leach.sink 	(unnamed) 	8.398237994
scalar Leach.sink 	(unnamed) 	8.355979598
scalar Leach.sink 	(unnamed) 	8.313872816
scalar Leach.sink 	(unnamed) 	8.271986538
scalar Leach.sink 	(unnamed) 	8.229923822
scalar Leach.sink 	(unnamed) 	8.187920618
scalar Leach.sink 	(unnamed) 	8.14583672
scalar Leach.sink 	(unnamed) 	8.10375242
scalar Leach.sink 	(unnamed) 	8.061557936
scalar Leach.sink 	(unnamed) 	8.019145576
scalar Leach.sink 	(unnamed) 	7.976489622
scalar Leach.sink 	(unnamed) 	7.934282776
scalar Leach.sink 	(unnamed) 	7.89212318
scalar Leach.sink 	(unnamed) 	7.849951226
scalar Leach.sink 	(unnamed) 	7.807603044
scalar Leach.sink 	(unnamed) 	7.765328508
scalar Leach.sink 	(unnamed) 	7.72292777
scalar Leach.sink 	(unnamed) 	7.68090078
scalar Leach.sink 	(unnamed) 	7.638841154
scalar Leach.sink 	(unnamed) 	7.596873922
scalar Leach.sink 	(unnamed) 	7.554745216
scalar Leach.sink 	(unnamed) 	7.512476034
scalar Leach.sink 	(unnamed) 	7.469980924
scalar Leach.sink 	(unnamed) 	7.428098866
scalar Leach.sink 	(unnamed) 	7.386104432
scalar Leach.sink 	(unnamed) 	7.34407958
scalar Leach.sink 	(unnamed) 	7.30194285
scalar Leach.sink 	(unnamed) 	7.259552702
scalar Leach.sink 	(unnamed) 	7.217417048
scalar Leach.sink 	(unnamed) 	7.175273304
scalar Leach.sink 	(unnamed) 	7.13305573
scalar Leach.sink 	(unnamed) 	7.0906279279999
scalar Leach.sink 	(unnamed) 	7.04816318
scalar Leach.sink 	(unnamed) 	7.0057000819999
scalar Leach.sink 	(unnamed) 	6.9630228839999
scalar Leach.sink 	"Fist dead node: " 	0
scalar Leach.sink 	"At round: " 	0
scalar Leach.sink 	"Total dead node: " 	0
scalar Leach.sink 	"TotalRound: " 	73
version 2
run General-0-20141207-13:05:57-5056
attr configname General
attr datetime 20141207-13:05:57
attr experiment General
attr inifile omnetpp.ini
attr iterationvars ""
attr iterationvars2 $repetition=0
attr measurement ""
attr network Leach
attr processid 5056
attr repetition 0
attr replication #0
attr resultdir results
attr runnumber 0
attr seedset 0

scalar Leach.sink 	(unnamed) 	9.957986604
scalar Leach.sink 	(unnamed) 	9.916063376
scalar Leach.sink 	(unnamed) 	9.874184032
scalar Leach.sink 	(unnamed) 	9.832279654
scalar Leach.sink 	(unnamed) 	9.79023221
scalar Leach.sink 	(unnamed) 	9.748278762
scalar Leach.sink 	(unnamed) 	9.706339044
scalar Leach.sink 	(unnamed) 	9.664228694
scalar Leach.sink 	(unnamed) 	9.621998226
scalar Leach.sink 	(unnamed) 	9.579776492
scalar Leach.sink 	(unnamed) 	9.537411046
scalar Leach.sink 	(unnamed) 	9.495100434
scalar Leach.sink 	(unnamed) 	9.453081952
scalar Leach.sink 	(unnamed) 	9.410998072
scalar Leach.sink 	(unnamed) 	9.369081884
scalar Leach.sink 	(unnamed) 	9.326858624
scalar Leach.sink 	(unnamed) 	9.284606952
scalar Leach.sink 	(unnamed) 	9.242142278
scalar Leach.sink 	(unnamed) 	9.200071094
scalar Leach.sink 	(unnamed) 	9.157913636
scalar Leach.sink 	(unnamed) 	9.11571641
scalar Leach.sink 	(unnamed) 	9.073538854
scalar Leach.sink 	(unnamed) 	9.031360776
scalar Leach.sink 	(unnamed) 	8.989009836
scalar Leach.sink 	(unnamed) 	8.94709579
scalar Leach.sink 	(unnamed) 	8.904911724
scalar Leach.sink 	(unnamed) 	8.862826368
scalar Leach.sink 	(unnamed) 	8.820668472
scalar Leach.sink 	(unnamed) 	8.77858743
scalar Leach.sink 	(unnamed) 	8.736521726
scalar Leach.sink 	(unnamed) 	8.694403452
scalar Leach.sink 	(unnamed) 	8.652064972
scalar Leach.sink 	(unnamed) 	8.609648018
scalar Leach.sink 	(unnamed) 	8.5672637
scalar Leach.sink 	(unnamed) 	8.52465375
scalar Leach.sink 	(unnamed) 	8.48197403
scalar Leach.sink 	(unnamed) 	8.44018731
scalar Leach.sink 	(unnamed) 	8.398237994
scalar Leach.sink 	(unnamed) 	8.355979598
scalar Leach.sink 	(unnamed) 	8.313872816
scalar Leach.sink 	(unnamed) 	8.271986538
scalar Leach.sink 	(unnamed) 	8.229923822
scalar Leach.sink 	(unnamed) 	8.187920618
scalar Leach.sink 	(unnamed) 	8.14583672
scalar Leach.sink 	(unnamed) 	8.10375242
scalar Leach.sink 	(unnamed) 	8.061557936
scalar Leach.sink 	(unnamed) 	8.019145576
scalar Leach.sink 	(unnamed) 	7.976489622
scalar Leach.sink 	(unnamed) 	7.934282776
scalar Leach.sink 	(unnamed) 	7.89212318
scalar Leach.sink 	(unnamed) 	7.849951226
scalar Leach.sink 	(unnamed) 	7.807603044
scalar Leach.sink 	(unnamed) 	7.765328508
scalar Leach.sink 	(unnamed) 	7.72292777
scalar Leach.sink 	(unnamed) 	7.68090078
scalar Leach.sink 	(unnamed) 	7.638841154
scalar Leach.sink 	(unnamed) 	7.596873922
scalar Leach.sink 	(unnamed) 	7.554745216
scalar Leach.sink 	(unnamed) 	7.512476034
scalar Leach.sink 	(unnamed) 	7.469980924
scalar Leach.sink 	(unnamed) 	7.428098866
scalar Leach.sink 	(unnamed) 	7.386104432
scalar Leach.sink 	(unnamed) 	7.34407958
scalar Leach.sink 	(unnamed) 	7.30194285
scalar Leach.sink 	(unnamed) 	7.259552702
scalar Leach.sink 	(unnamed) 	7.217417048
scalar Leach.sink 	(unnamed) 	7.175273304
scalar Leach.sink 	(unnamed) 	7.13305573
scalar Leach.sink 	(unnamed) 	7.0906279279999
scalar Leach.sink 	(unnamed) 	7.04816318
scalar Leach.sink 	(unnamed) 	7.0057000819999
scalar Leach.sink 	(unnamed) 	6.9630228839999
scalar Leach.sink 	(unnamed) 	6.9212467279999
scalar Leach.sink 	(unnamed) 	6.8794219679999
scalar Leach.sink 	(unnamed) 	6.8374174499999
scalar Leach.sink 	(unnamed) 	6.795260086
scalar Leach.sink 	(unnamed) 	6.7530886099999
scalar Leach.sink 	(unnamed) 	6.7108814759999
scalar Leach.sink 	(unnamed) 	6.6688666099999
scalar Leach.sink 	(unnamed) 	6.6265926799999
scalar Leach.sink 	(unnamed) 	6.5844911699999
scalar Leach.sink 	(unnamed) 	6.5423320739999
scalar Leach.sink 	(unnamed) 	6.5000132199999
scalar Leach.sink 	(unnamed) 	6.4576755099999
scalar Leach.sink 	(unnamed) 	6.4157765819999
scalar Leach.sink 	(unnamed) 	6.3736810479999
scalar Leach.sink 	(unnamed) 	6.3312179159999
scalar Leach.sink 	(unnamed) 	6.2886286559999
scalar Leach.sink 	(unnamed) 	6.2462088659999
scalar Leach.sink 	(unnamed) 	6.2037610419999
scalar Leach.sink 	(unnamed) 	6.1616971379999
scalar Leach.sink 	(unnamed) 	6.1199443599999
scalar Leach.sink 	(unnamed) 	6.0780451639999
scalar Leach.sink 	(unnamed) 	6.0358552679999
scalar Leach.sink 	(unnamed) 	5.9935901179999
scalar Leach.sink 	(unnamed) 	5.9511854899999
scalar Leach.sink 	(unnamed) 	5.9091713419999
scalar Leach.sink 	(unnamed) 	5.8671236819999
scalar Leach.sink 	(unnamed) 	5.8248379719999
scalar Leach.sink 	"Fist dead node: " 	0
scalar Leach.sink 	"At round: " 	0
scalar Leach.sink 	"Total dead node: " 	0
scalar Leach.sink 	"TotalRound: " 	100
version 2
run General-0-20141207-13:10:23-2496
attr configname General
attr datetime 20141207-13:10:23
attr experiment General
attr inifile omnetpp.ini
attr iterationvars ""
attr iterationvars2 $repetition=0
attr measurement ""
attr network Leach
attr processid 2496
attr repetition 0
attr replication #0
attr resultdir results
attr runnumber 0
attr seedset 0

scalar Leach.sink 	(unnamed) 	9.957986604
scalar Leach.sink 	(unnamed) 	9.916063376
scalar Leach.sink 	(unnamed) 	9.874184032
scalar Leach.sink 	(unnamed) 	9.832279654
scalar Leach.sink 	(unnamed) 	9.79023221
scalar Leach.sink 	(unnamed) 	9.748278762
scalar Leach.sink 	(unnamed) 	9.706339044
scalar Leach.sink 	(unnamed) 	9.664228694
scalar Leach.sink 	(unnamed) 	9.621998226
scalar Leach.sink 	(unnamed) 	9.579776492
scalar Leach.sink 	(unnamed) 	9.537411046
scalar Leach.sink 	(unnamed) 	9.495100434
scalar Leach.sink 	(unnamed) 	9.453081952
scalar Leach.sink 	(unnamed) 	9.410998072
scalar Leach.sink 	(unnamed) 	9.369081884
scalar Leach.sink 	(unnamed) 	9.326858624
scalar Leach.sink 	(unnamed) 	9.284606952
scalar Leach.sink 	(unnamed) 	9.242142278
scalar Leach.sink 	(unnamed) 	9.200071094
scalar Leach.sink 	(unnamed) 	9.157913636
scalar Leach.sink 	(unnamed) 	9.11571641
scalar Leach.sink 	(unnamed) 	9.073538854
scalar Leach.sink 	(unnamed) 	9.031360776
scalar Leach.sink 	(unnamed) 	8.989009836
scalar Leach.sink 	(unnamed) 	8.94709579
scalar Leach.sink 	(unnamed) 	8.904911724
scalar Leach.sink 	(unnamed) 	8.862826368
scalar Leach.sink 	(unnamed) 	8.820668472
scalar Leach.sink 	(unnamed) 	8.77858743
scalar Leach.sink 	(unnamed) 	8.736521726
scalar Leach.sink 	(unnamed) 	8.694403452
scalar Leach.sink 	(unnamed) 	8.652064972
scalar Leach.sink 	(unnamed) 	8.609648018
scalar Leach.sink 	(unnamed) 	8.5672637
scalar Leach.sink 	(unnamed) 	8.52465375
scalar Leach.sink 	(unnamed) 	8.48197403
scalar Leach.sink 	(unnamed) 	8.44018731
scalar Leach.sink 	(unnamed) 	8.398237994
scalar Leach.sink 	(unnamed) 	8.355979598
scalar Leach.sink 	(unnamed) 	8.313872816
scalar Leach.sink 	(unnamed) 	8.271986538
scalar Leach.sink 	(unnamed) 	8.229923822
scalar Leach.sink 	(unnamed) 	8.187920618
scalar Leach.sink 	(unnamed) 	8.14583672
scalar Leach.sink 	(unnamed) 	8.10375242
scalar Leach.sink 	(unnamed) 	8.061557936
scalar Leach.sink 	(unnamed) 	8.019145576
scalar Leach.sink 	(unnamed) 	7.976489622
scalar Leach.sink 	(unnamed) 	7.934282776
scalar Leach.sink 	(unnamed) 	7.89212318
scalar Leach.sink 	(unnamed) 	7.849951226
scalar Leach.sink 	(unnamed) 	7.807603044
scalar Leach.sink 	(unnamed) 	7.765328508
scalar Leach.sink 	(unnamed) 	7.72292777
scalar Leach.sink 	(unnamed) 	7.68090078
scalar Leach.sink 	(unnamed) 	7.638841154
scalar Leach.sink 	(unnamed) 	7.596873922
scalar Leach.sink 	(unnamed) 	7.554745216
scalar Leach.sink 	(unnamed) 	7.512476034
scalar Leach.sink 	(unnamed) 	7.469980924
scalar Leach.sink 	(unnamed) 	7.428098866
scalar Leach.sink 	(unnamed) 	7.386104432
scalar Leach.sink 	(unnamed) 	7.34407958
scalar Leach.sink 	(unnamed) 	7.30194285
scalar Leach.sink 	(unnamed) 	7.259552702
scalar Leach.sink 	(unnamed) 	7.217417048
scalar Leach.sink 	(unnamed) 	7.175273304
scalar Leach.sink 	(unnamed) 	7.13305573
scalar Leach.sink 	(unnamed) 	7.0906279279999
scalar Leach.sink 	(unnamed) 	7.04816318
scalar Leach.sink 	(unnamed) 	7.0057000819999
scalar Leach.sink 	(unnamed) 	6.9630228839999
scalar Leach.sink 	(unnamed) 	6.9212467279999
scalar Leach.sink 	(unnamed) 	6.8794219679999
scalar Leach.sink 	(unnamed) 	6.8374174499999
scalar Leach.sink 	(unnamed) 	6.795260086
scalar Leach.sink 	(unnamed) 	6.7530886099999
scalar Leach.sink 	(unnamed) 	6.7108814759999
scalar Leach.sink 	(unnamed) 	6.6688666099999
scalar Leach.sink 	(unnamed) 	6.6265926799999
scalar Leach.sink 	(unnamed) 	6.5844911699999
scalar Leach.sink 	(unnamed) 	6.5423320739999
scalar Leach.sink 	(unnamed) 	6.5000132199999
scalar Leach.sink 	(unnamed) 	6.4576755099999
scalar Leach.sink 	(unnamed) 	6.4157765819999
scalar Leach.sink 	(unnamed) 	6.3736810479999
scalar Leach.sink 	(unnamed) 	6.3312179159999
scalar Leach.sink 	(unnamed) 	6.2886286559999
scalar Leach.sink 	(unnamed) 	6.2462088659999
scalar Leach.sink 	(unnamed) 	6.2037610419999
scalar Leach.sink 	(unnamed) 	6.1616971379999
scalar Leach.sink 	(unnamed) 	6.1199443599999
scalar Leach.sink 	(unnamed) 	6.0780451639999
scalar Leach.sink 	(unnamed) 	6.0358552679999
scalar Leach.sink 	(unnamed) 	5.9935901179999
scalar Leach.sink 	(unnamed) 	5.9511854899999
scalar Leach.sink 	(unnamed) 	5.9091713419999
scalar Leach.sink 	(unnamed) 	5.8671236819999
scalar Leach.sink 	(unnamed) 	5.8248379719999
scalar Leach.sink 	(unnamed) 	5.7828314719999
scalar Leach.sink 	(unnamed) 	5.7407809759999
scalar Leach.sink 	(unnamed) 	5.6987623719999
scalar Leach.sink 	(unnamed) 	5.6566205239999
scalar Leach.sink 	(unnamed) 	5.6141575759999
scalar Leach.sink 	(unnamed) 	5.5719267579999
scalar Leach.sink 	(unnamed) 	5.5294493339999
scalar Leach.sink 	(unnamed) 	5.4867778559999
scalar Leach.sink 	(unnamed) 	5.4438526859999
scalar Leach.sink 	(unnamed) 	5.4019892399999
scalar Leach.sink 	(unnamed) 	5.3602054879999
scalar Leach.sink 	(unnamed) 	5.3183294099999
scalar Leach.sink 	(unnamed) 	5.2764025639999
scalar Leach.sink 	(unnamed) 	5.2345049499999
scalar Leach.sink 	(unnamed) 	5.1924970979999
scalar Leach.sink 	(unnamed) 	5.1503218159999
scalar Leach.sink 	(unnamed) 	5.1081442199999
scalar Leach.sink 	(unnamed) 	5.0656945379999
scalar Leach.sink 	(unnamed) 	5.0234543059999
scalar Leach.sink 	(unnamed) 	4.9810998979999
scalar Leach.sink 	(unnamed) 	4.9390298379999
scalar Leach.sink 	(unnamed) 	4.8967373719999
scalar Leach.sink 	(unnamed) 	4.8546545719999
scalar Leach.sink 	(unnamed) 	4.8123619679999
scalar Leach.sink 	(unnamed) 	4.7701587679999
scalar Leach.sink 	(unnamed) 	4.7279903199999
scalar Leach.sink 	(unnamed) 	4.6855468819999
scalar Leach.sink 	(unnamed) 	4.6434392319999
scalar Leach.sink 	(unnamed) 	4.6011926119999
scalar Leach.sink 	(unnamed) 	4.5591461819999
scalar Leach.sink 	(unnamed) 	4.5170803579999
scalar Leach.sink 	(unnamed) 	4.4749752179999
scalar Leach.sink 	(unnamed) 	4.4328895759999
scalar Leach.sink 	(unnamed) 	4.3907009419999
scalar Leach.sink 	(unnamed) 	4.3485963839999
scalar Leach.sink 	(unnamed) 	4.3062404359999
scalar Leach.sink 	(unnamed) 	4.2642628519999
scalar Leach.sink 	(unnamed) 	4.2222635419999
scalar Leach.sink 	(unnamed) 	4.1802647239999
scalar Leach.sink 	(unnamed) 	4.1380414939999
scalar Leach.sink 	(unnamed) 	4.0958013319999
scalar Leach.sink 	(unnamed) 	4.0531587119999
scalar Leach.sink 	(unnamed) 	4.0107190219999
scalar Leach.sink 	(unnamed) 	3.9683788479999
scalar Leach.sink 	(unnamed) 	3.9260275639999
scalar Leach.sink 	(unnamed) 	3.8842687359999
scalar Leach.sink 	(unnamed) 	3.8421002459999
scalar Leach.sink 	(unnamed) 	3.8001659019999
scalar Leach.sink 	(unnamed) 	3.7582913959999
scalar Leach.sink 	(unnamed) 	3.7159637999999
scalar Leach.sink 	(unnamed) 	3.6738400999999
scalar Leach.sink 	(unnamed) 	3.6318423519999
scalar Leach.sink 	(unnamed) 	3.5896160239999
scalar Leach.sink 	(unnamed) 	3.5472028759999
scalar Leach.sink 	(unnamed) 	3.5050498979999
scalar Leach.sink 	(unnamed) 	3.4627439739999
scalar Leach.sink 	(unnamed) 	3.4207301039999
scalar Leach.sink 	(unnamed) 	3.3784371659999
scalar Leach.sink 	(unnamed) 	3.3365260879999
scalar Leach.sink 	(unnamed) 	3.2944479519999
scalar Leach.sink 	(unnamed) 	3.2520149259999
scalar Leach.sink 	(unnamed) 	3.2095528739999
scalar Leach.sink 	(unnamed) 	3.1669863379999
scalar Leach.sink 	(unnamed) 	3.1248813779999
scalar Leach.sink 	(unnamed) 	3.0826436459999
scalar Leach.sink 	(unnamed) 	3.0405608919999
scalar Leach.sink 	(unnamed) 	2.9986169379999
scalar Leach.sink 	(unnamed) 	2.9566209259999
scalar Leach.sink 	(unnamed) 	2.9142011979999
scalar Leach.sink 	(unnamed) 	2.8723669299999
scalar Leach.sink 	(unnamed) 	2.8304424979999
scalar Leach.sink 	(unnamed) 	2.7884508559999
scalar Leach.sink 	(unnamed) 	2.7463707779999
scalar Leach.sink 	(unnamed) 	2.7041757479999
scalar Leach.sink 	(unnamed) 	2.6614198899999
scalar Leach.sink 	(unnamed) 	2.6191175579999
scalar Leach.sink 	(unnamed) 	2.5769268399999
scalar Leach.sink 	(unnamed) 	2.5346247839999
scalar Leach.sink 	(unnamed) 	2.4921906319999
scalar Leach.sink 	(unnamed) 	2.4501132259999
scalar Leach.sink 	(unnamed) 	2.4079585279999
scalar Leach.sink 	(unnamed) 	2.3656825539999
scalar Leach.sink 	(unnamed) 	2.3237779019999
scalar Leach.sink 	(unnamed) 	2.2816056759999
scalar Leach.sink 	(unnamed) 	2.2395219979999
scalar Leach.sink 	(unnamed) 	2.1972671639999
scalar Leach.sink 	(unnamed) 	2.1552063579999
scalar Leach.sink 	(unnamed) 	2.1133356419999
scalar Leach.sink 	(unnamed) 	2.0710127799999
scalar Leach.sink 	(unnamed) 	2.0290357299999
scalar Leach.sink 	(unnamed) 	1.9868414179999
scalar Leach.sink 	(unnamed) 	1.9445646819999
scalar Leach.sink 	(unnamed) 	1.9024139659999
scalar Leach.sink 	(unnamed) 	1.8599449439999
scalar Leach.sink 	(unnamed) 	1.8176864579999
scalar Leach.sink 	(unnamed) 	1.7752947779999
scalar Leach.sink 	(unnamed) 	1.7334251199999
scalar Leach.sink 	(unnamed) 	1.6913274059999
scalar Leach.sink 	(unnamed) 	1.6494587139999
scalar Leach.sink 	(unnamed) 	1.6068951019999
scalar Leach.sink 	(unnamed) 	1.5645750819999
scalar Leach.sink 	(unnamed) 	1.5222938759999
scalar Leach.sink 	(unnamed) 	1.4800990219999
scalar Leach.sink 	(unnamed) 	1.4381172759999
scalar Leach.sink 	(unnamed) 	1.3959296359999
scalar Leach.sink 	(unnamed) 	1.3535945959999
scalar Leach.sink 	(unnamed) 	1.3115028139999
scalar Leach.sink 	(unnamed) 	1.2694410579999
scalar Leach.sink 	(unnamed) 	1.2273486399999
scalar Leach.sink 	(unnamed) 	1.1854881539999
scalar Leach.sink 	(unnamed) 	1.1433998499999
scalar Leach.sink 	(unnamed) 	1.1010546999999
scalar Leach.sink 	(unnamed) 	1.0586147319999
scalar Leach.sink 	(unnamed) 	1.0166098559999
scalar Leach.sink 	(unnamed) 	0.97430603399993
scalar Leach.sink 	(unnamed) 	0.93191663799993
scalar Leach.sink 	(unnamed) 	0.88969674999993
scalar Leach.sink 	(unnamed) 	0.84762222799993
scalar Leach.sink 	(unnamed) 	0.80527916999993
scalar Leach.sink 	(unnamed) 	0.76341500799993
scalar Leach.sink 	(unnamed) 	0.72124872399993
scalar Leach.sink 	(unnamed) 	0.67907403799993
scalar Leach.sink 	(unnamed) 	0.63672693999993
scalar Leach.sink 	(unnamed) 	0.59434626799993
scalar Leach.sink 	(unnamed) 	0.55224363999993
scalar Leach.sink 	(unnamed) 	0.51012025199993
scalar Leach.sink 	(unnamed) 	0.46818506399993
scalar Leach.sink 	(unnamed) 	0.42589576599993
scalar Leach.sink 	(unnamed) 	0.38386005199993
scalar Leach.sink 	(unnamed) 	0.34160675199993
scalar Leach.sink 	(unnamed) 	0.29960212399993
scalar Leach.sink 	(unnamed) 	0.25755195999993
scalar Leach.sink 	(unnamed) 	0.21535114399993
scalar Leach.sink 	(unnamed) 	0.17291305599993
scalar Leach.sink 	(unnamed) 	0.13089437599993
scalar Leach.sink 	(unnamed) 	0.088563517999931
scalar Leach.sink 	(unnamed) 	0.046397865999931
scalar Leach.sink 	(unnamed) 	0.0047142159999313
scalar Leach.sink 	(unnamed) 	-0.037334338000069
scalar Leach.sink 	(unnamed) 	-0.079149666000069
scalar Leach.sink 	(unnamed) 	-0.12124497600007
scalar Leach.sink 	(unnamed) 	-0.16329267000007
scalar Leach.sink 	(unnamed) 	-0.20532224200007
scalar Leach.sink 	(unnamed) 	-0.24719594600007
scalar Leach.sink 	(unnamed) 	-0.28922639600007
scalar Leach.sink 	(unnamed) 	-0.33112161800007
scalar Leach.sink 	(unnamed) 	-0.37302986200007
scalar Leach.sink 	(unnamed) 	-0.41499991400007
scalar Leach.sink 	(unnamed) 	-0.45688363800007
scalar Leach.sink 	(unnamed) 	-0.49876736200007
version 2
run General-0-20141207-13:18:09-5188
attr configname General
attr datetime 20141207-13:18:09
attr experiment General
attr inifile omnetpp.ini
attr iterationvars ""
attr iterationvars2 $repetition=0
attr measurement ""
attr network Leach
attr processid 5188
attr repetition 0
attr replication #0
attr resultdir results
attr runnumber 0
attr seedset 0

scalar Leach.sink 	"Fist dead node: " 	0
scalar Leach.sink 	"At round: " 	0
scalar Leach.sink 	"Total dead node: " 	0
scalar Leach.sink 	"TotalRound: " 	1
version 2
run General-0-20141207-13:21:37-2768
attr configname General
attr datetime 20141207-13:21:37
attr experiment General
attr inifile omnetpp.ini
attr iterationvars ""
attr iterationvars2 $repetition=0
attr measurement ""
attr network Leach
attr processid 2768
attr repetition 0
attr replication #0
attr resultdir results
attr runnumber 0
attr seedset 0

scalar Leach.sink 	(unnamed) 	9.957986604
scalar Leach.sink 	(unnamed) 	9.916063376
scalar Leach.sink 	(unnamed) 	9.874184032
scalar Leach.sink 	(unnamed) 	9.832279654
scalar Leach.sink 	(unnamed) 	9.79023221
scalar Leach.sink 	(unnamed) 	9.748278762
scalar Leach.sink 	(unnamed) 	9.706339044
scalar Leach.sink 	(unnamed) 	9.664228694
scalar Leach.sink 	(unnamed) 	9.621998226
scalar Leach.sink 	(unnamed) 	9.579776492
scalar Leach.sink 	(unnamed) 	9.537411046
scalar Leach.sink 	(unnamed) 	9.495100434
scalar Leach.sink 	(unnamed) 	9.453081952
scalar Leach.sink 	(unnamed) 	9.410998072
scalar Leach.sink 	(unnamed) 	9.369081884
scalar Leach.sink 	(unnamed) 	9.326858624
scalar Leach.sink 	(unnamed) 	9.284606952
scalar Leach.sink 	(unnamed) 	9.242142278
scalar Leach.sink 	(unnamed) 	9.200071094
scalar Leach.sink 	(unnamed) 	9.157913636
scalar Leach.sink 	(unnamed) 	9.11571641
scalar Leach.sink 	(unnamed) 	9.073538854
scalar Leach.sink 	(unnamed) 	9.031360776
scalar Leach.sink 	(unnamed) 	8.989009836
scalar Leach.sink 	(unnamed) 	8.94709579
scalar Leach.sink 	(unnamed) 	8.904911724
scalar Leach.sink 	(unnamed) 	8.862826368
scalar Leach.sink 	(unnamed) 	8.820668472
scalar Leach.sink 	(unnamed) 	8.77858743
scalar Leach.sink 	(unnamed) 	8.736521726
scalar Leach.sink 	(unnamed) 	8.694403452
scalar Leach.sink 	(unnamed) 	8.652064972
scalar Leach.sink 	(unnamed) 	8.609648018
scalar Leach.sink 	(unnamed) 	8.5672637
scalar Leach.sink 	(unnamed) 	8.52465375
scalar Leach.sink 	(unnamed) 	8.48197403
scalar Leach.sink 	(unnamed) 	8.44018731
scalar Leach.sink 	(unnamed) 	8.398237994
scalar Leach.sink 	(unnamed) 	8.355979598
scalar Leach.sink 	(unnamed) 	8.313872816
scalar Leach.sink 	(unnamed) 	8.271986538
scalar Leach.sink 	(unnamed) 	8.229923822
scalar Leach.sink 	(unnamed) 	8.187920618
scalar Leach.sink 	(unnamed) 	8.14583672
scalar Leach.sink 	(unnamed) 	8.10375242
scalar Leach.sink 	(unnamed) 	8.061557936
scalar Leach.sink 	(unnamed) 	8.019145576
scalar Leach.sink 	(unnamed) 	7.976489622
scalar Leach.sink 	(unnamed) 	7.934282776
scalar Leach.sink 	(unnamed) 	7.89212318
scalar Leach.sink 	(unnamed) 	7.849951226
scalar Leach.sink 	(unnamed) 	7.807603044
scalar Leach.sink 	(unnamed) 	7.765328508
scalar Leach.sink 	(unnamed) 	7.72292777
scalar Leach.sink 	(unnamed) 	7.68090078
scalar Leach.sink 	(unnamed) 	7.638841154
scalar Leach.sink 	(unnamed) 	7.596873922
scalar Leach.sink 	(unnamed) 	7.554745216
scalar Leach.sink 	(unnamed) 	7.512476034
scalar Leach.sink 	(unnamed) 	7.469980924
scalar Leach.sink 	(unnamed) 	7.428098866
scalar Leach.sink 	(unnamed) 	7.386104432
scalar Leach.sink 	(unnamed) 	7.34407958
scalar Leach.sink 	(unnamed) 	7.30194285
scalar Leach.sink 	(unnamed) 	7.259552702
scalar Leach.sink 	(unnamed) 	7.217417048
scalar Leach.sink 	(unnamed) 	7.175273304
scalar Leach.sink 	(unnamed) 	7.13305573
scalar Leach.sink 	(unnamed) 	7.0906279279999
scalar Leach.sink 	(unnamed) 	7.04816318
scalar Leach.sink 	(unnamed) 	7.0057000819999
scalar Leach.sink 	(unnamed) 	6.9630228839999
scalar Leach.sink 	(unnamed) 	6.9212467279999
scalar Leach.sink 	(unnamed) 	6.8794219679999
scalar Leach.sink 	(unnamed) 	6.8374174499999
scalar Leach.sink 	(unnamed) 	6.795260086
scalar Leach.sink 	(unnamed) 	6.7530886099999
scalar Leach.sink 	(unnamed) 	6.7108814759999
scalar Leach.sink 	(unnamed) 	6.6688666099999
scalar Leach.sink 	(unnamed) 	6.6265926799999
scalar Leach.sink 	(unnamed) 	6.5844911699999
scalar Leach.sink 	(unnamed) 	6.5423320739999
scalar Leach.sink 	(unnamed) 	6.5000132199999
scalar Leach.sink 	(unnamed) 	6.4576755099999
scalar Leach.sink 	(unnamed) 	6.4157765819999
scalar Leach.sink 	(unnamed) 	6.3736810479999
scalar Leach.sink 	(unnamed) 	6.3312179159999
scalar Leach.sink 	(unnamed) 	6.2886286559999
scalar Leach.sink 	(unnamed) 	6.2462088659999
scalar Leach.sink 	(unnamed) 	6.2037610419999
scalar Leach.sink 	(unnamed) 	6.1616971379999
scalar Leach.sink 	(unnamed) 	6.1199443599999
scalar Leach.sink 	(unnamed) 	6.0780451639999
scalar Leach.sink 	(unnamed) 	6.0358552679999
scalar Leach.sink 	(unnamed) 	5.9935901179999
scalar Leach.sink 	(unnamed) 	5.9511854899999
scalar Leach.sink 	(unnamed) 	5.9091713419999
scalar Leach.sink 	(unnamed) 	5.8671236819999
scalar Leach.sink 	(unnamed) 	5.8248379719999
scalar Leach.sink 	(unnamed) 	5.7828314719999
scalar Leach.sink 	(unnamed) 	5.7407809759999
scalar Leach.sink 	(unnamed) 	5.6987623719999
scalar Leach.sink 	(unnamed) 	5.6566205239999
scalar Leach.sink 	(unnamed) 	5.6141575759999
scalar Leach.sink 	(unnamed) 	5.5719267579999
scalar Leach.sink 	(unnamed) 	5.5294493339999
scalar Leach.sink 	(unnamed) 	5.4867778559999
scalar Leach.sink 	(unnamed) 	5.4438526859999
scalar Leach.sink 	(unnamed) 	5.4019892399999
scalar Leach.sink 	(unnamed) 	5.3602054879999
scalar Leach.sink 	(unnamed) 	5.3183294099999
scalar Leach.sink 	(unnamed) 	5.2764025639999
scalar Leach.sink 	(unnamed) 	5.2345049499999
scalar Leach.sink 	(unnamed) 	5.1924970979999
scalar Leach.sink 	(unnamed) 	5.1503218159999
scalar Leach.sink 	(unnamed) 	5.1081442199999
scalar Leach.sink 	(unnamed) 	5.0656945379999
scalar Leach.sink 	(unnamed) 	5.0234543059999
scalar Leach.sink 	(unnamed) 	4.9810998979999
scalar Leach.sink 	(unnamed) 	4.9390298379999
scalar Leach.sink 	(unnamed) 	4.8967373719999
scalar Leach.sink 	(unnamed) 	4.8546545719999
scalar Leach.sink 	(unnamed) 	4.8123619679999
scalar Leach.sink 	(unnamed) 	4.7701587679999
scalar Leach.sink 	(unnamed) 	4.7279903199999
scalar Leach.sink 	(unnamed) 	4.6855468819999
scalar Leach.sink 	(unnamed) 	4.6434392319999
scalar Leach.sink 	(unnamed) 	4.6011926119999
scalar Leach.sink 	(unnamed) 	4.5591461819999
scalar Leach.sink 	(unnamed) 	4.5170803579999
scalar Leach.sink 	(unnamed) 	4.4749752179999
scalar Leach.sink 	(unnamed) 	4.4328895759999
scalar Leach.sink 	(unnamed) 	4.3907009419999
scalar Leach.sink 	(unnamed) 	4.3485963839999
scalar Leach.sink 	(unnamed) 	4.3062404359999
scalar Leach.sink 	(unnamed) 	4.2642628519999
scalar Leach.sink 	(unnamed) 	4.2222635419999
scalar Leach.sink 	(unnamed) 	4.1802647239999
scalar Leach.sink 	(unnamed) 	4.1380414939999
scalar Leach.sink 	(unnamed) 	4.0958013319999
scalar Leach.sink 	(unnamed) 	4.0531587119999
scalar Leach.sink 	(unnamed) 	4.0107190219999
scalar Leach.sink 	(unnamed) 	3.9683788479999
scalar Leach.sink 	(unnamed) 	3.9260275639999
scalar Leach.sink 	(unnamed) 	3.8842687359999
scalar Leach.sink 	(unnamed) 	3.8421002459999
scalar Leach.sink 	(unnamed) 	3.8001659019999
scalar Leach.sink 	(unnamed) 	3.7582913959999
scalar Leach.sink 	(unnamed) 	3.7159637999999
scalar Leach.sink 	(unnamed) 	3.6738400999999
scalar Leach.sink 	(unnamed) 	3.6318423519999
scalar Leach.sink 	(unnamed) 	3.5896160239999
scalar Leach.sink 	(unnamed) 	3.5472028759999
scalar Leach.sink 	(unnamed) 	3.5050498979999
scalar Leach.sink 	(unnamed) 	3.4627439739999
scalar Leach.sink 	(unnamed) 	3.4207301039999
scalar Leach.sink 	(unnamed) 	3.3784371659999
scalar Leach.sink 	(unnamed) 	3.3365260879999
scalar Leach.sink 	(unnamed) 	3.2944479519999
scalar Leach.sink 	(unnamed) 	3.2520149259999
scalar Leach.sink 	(unnamed) 	3.2095528739999
scalar Leach.sink 	(unnamed) 	3.1669863379999
scalar Leach.sink 	(unnamed) 	3.1248813779999
scalar Leach.sink 	(unnamed) 	3.0826436459999
scalar Leach.sink 	(unnamed) 	3.0405608919999
scalar Leach.sink 	(unnamed) 	2.9986169379999
scalar Leach.sink 	(unnamed) 	2.9566209259999
scalar Leach.sink 	(unnamed) 	2.9142011979999
scalar Leach.sink 	(unnamed) 	2.8723669299999
scalar Leach.sink 	(unnamed) 	2.8304424979999
scalar Leach.sink 	(unnamed) 	2.7884508559999
scalar Leach.sink 	(unnamed) 	2.7463707779999
scalar Leach.sink 	(unnamed) 	2.7041757479999
scalar Leach.sink 	(unnamed) 	2.6614198899999
scalar Leach.sink 	(unnamed) 	2.6191175579999
scalar Leach.sink 	(unnamed) 	2.5769268399999
scalar Leach.sink 	(unnamed) 	2.5346247839999
scalar Leach.sink 	(unnamed) 	2.4921906319999
scalar Leach.sink 	(unnamed) 	2.4501132259999
scalar Leach.sink 	(unnamed) 	2.4079585279999
scalar Leach.sink 	(unnamed) 	2.3656825539999
scalar Leach.sink 	(unnamed) 	2.3237779019999
scalar Leach.sink 	(unnamed) 	2.2816056759999
scalar Leach.sink 	(unnamed) 	2.2395219979999
scalar Leach.sink 	(unnamed) 	2.1972671639999
scalar Leach.sink 	(unnamed) 	2.1552063579999
scalar Leach.sink 	(unnamed) 	2.1133356419999
scalar Leach.sink 	(unnamed) 	2.0710127799999
scalar Leach.sink 	(unnamed) 	2.0290357299999
scalar Leach.sink 	(unnamed) 	1.9868414179999
scalar Leach.sink 	(unnamed) 	1.9445646819999
scalar Leach.sink 	(unnamed) 	1.9024139659999
scalar Leach.sink 	(unnamed) 	1.8599449439999
scalar Leach.sink 	(unnamed) 	1.8176864579999
scalar Leach.sink 	(unnamed) 	1.7752947779999
scalar Leach.sink 	(unnamed) 	1.7334251199999
scalar Leach.sink 	(unnamed) 	1.6913274059999
scalar Leach.sink 	(unnamed) 	1.6494587139999
scalar Leach.sink 	(unnamed) 	1.6068951019999
scalar Leach.sink 	(unnamed) 	1.5645750819999
scalar Leach.sink 	(unnamed) 	1.5222938759999
scalar Leach.sink 	(unnamed) 	1.4800990219999
scalar Leach.sink 	(unnamed) 	1.4381172759999
scalar Leach.sink 	(unnamed) 	1.3959296359999
scalar Leach.sink 	(unnamed) 	1.3535945959999
scalar Leach.sink 	(unnamed) 	1.3115028139999
scalar Leach.sink 	(unnamed) 	1.2694410579999
scalar Leach.sink 	(unnamed) 	1.2273486399999
scalar Leach.sink 	(unnamed) 	1.1854881539999
scalar Leach.sink 	(unnamed) 	1.1433998499999
scalar Leach.sink 	(unnamed) 	1.1010546999999
scalar Leach.sink 	(unnamed) 	1.0586147319999
scalar Leach.sink 	(unnamed) 	1.0166098559999
scalar Leach.sink 	(unnamed) 	0.97430603399993
scalar Leach.sink 	(unnamed) 	0.93191663799993
scalar Leach.sink 	(unnamed) 	0.88969674999993
scalar Leach.sink 	(unnamed) 	0.84762222799993
scalar Leach.sink 	(unnamed) 	0.80527916999993
scalar Leach.sink 	(unnamed) 	0.76341500799993
scalar Leach.sink 	(unnamed) 	0.72124872399993
scalar Leach.sink 	(unnamed) 	0.67907403799993
scalar Leach.sink 	(unnamed) 	0.63672693999993
scalar Leach.sink 	(unnamed) 	0.59434626799993
scalar Leach.sink 	(unnamed) 	0.55224363999993
scalar Leach.sink 	(unnamed) 	0.51012025199993
scalar Leach.sink 	(unnamed) 	0.46818506399993
scalar Leach.sink 	(unnamed) 	0.42589576599993
scalar Leach.sink 	(unnamed) 	0.38386005199993
scalar Leach.sink 	(unnamed) 	0.34160675199993
scalar Leach.sink 	(unnamed) 	0.29960212399993
scalar Leach.sink 	(unnamed) 	0.25755195999993
scalar Leach.sink 	(unnamed) 	0.21535114399993
scalar Leach.sink 	(unnamed) 	0.17291305599993
scalar Leach.sink 	(unnamed) 	0.13089437599993
scalar Leach.sink 	(unnamed) 	0.088563517999931
scalar Leach.sink 	(unnamed) 	0.046397865999931
scalar Leach.sink 	(unnamed) 	0.0047142159999313
scalar Leach.sink 	(unnamed) 	-0.037334338000069
scalar Leach.sink 	(unnamed) 	-0.079149666000069
scalar Leach.sink 	(unnamed) 	-0.12124497600007
scalar Leach.sink 	(unnamed) 	-0.16329267000007
scalar Leach.sink 	(unnamed) 	-0.20532224200007
scalar Leach.sink 	(unnamed) 	-0.24719594600007
scalar Leach.sink 	(unnamed) 	-0.28922639600007
scalar Leach.sink 	(unnamed) 	-0.33112161800007
scalar Leach.sink 	(unnamed) 	-0.37302986200007
version 2
run General-0-20141207-13:30:47-2952
attr configname General
attr datetime 20141207-13:30:47
attr experiment General
attr inifile omnetpp.ini
attr iterationvars ""
attr iterationvars2 $repetition=0
attr measurement ""
attr network Leach
attr processid 2952
attr repetition 0
attr replication #0
attr resultdir results
attr runnumber 0
attr seedset 0

scalar Leach.sink 	(unnamed) 	9.957986604
scalar Leach.sink 	(unnamed) 	9.916063376
scalar Leach.sink 	(unnamed) 	9.874184032
scalar Leach.sink 	(unnamed) 	9.832279654
scalar Leach.sink 	(unnamed) 	9.79023221
scalar Leach.sink 	(unnamed) 	9.748278762
scalar Leach.sink 	(unnamed) 	9.706339044
scalar Leach.sink 	(unnamed) 	9.664228694
scalar Leach.sink 	(unnamed) 	9.621998226
scalar Leach.sink 	(unnamed) 	9.579776492
scalar Leach.sink 	(unnamed) 	9.537411046
scalar Leach.sink 	(unnamed) 	9.495100434
scalar Leach.sink 	(unnamed) 	9.453081952
scalar Leach.sink 	(unnamed) 	9.410998072
scalar Leach.sink 	(unnamed) 	9.369081884
scalar Leach.sink 	(unnamed) 	9.326858624
scalar Leach.sink 	(unnamed) 	9.284606952
scalar Leach.sink 	(unnamed) 	9.242142278
scalar Leach.sink 	(unnamed) 	9.200071094
scalar Leach.sink 	(unnamed) 	9.157913636
scalar Leach.sink 	(unnamed) 	9.11571641
scalar Leach.sink 	(unnamed) 	9.073538854
scalar Leach.sink 	(unnamed) 	9.031360776
scalar Leach.sink 	(unnamed) 	8.989009836
scalar Leach.sink 	(unnamed) 	8.94709579
scalar Leach.sink 	(unnamed) 	8.904911724
scalar Leach.sink 	(unnamed) 	8.862826368
scalar Leach.sink 	(unnamed) 	8.820668472
scalar Leach.sink 	(unnamed) 	8.77858743
scalar Leach.sink 	(unnamed) 	8.736521726
scalar Leach.sink 	(unnamed) 	8.694403452
scalar Leach.sink 	(unnamed) 	8.652064972
scalar Leach.sink 	(unnamed) 	8.609648018
scalar Leach.sink 	(unnamed) 	8.5672637
scalar Leach.sink 	(unnamed) 	8.52465375
scalar Leach.sink 	(unnamed) 	8.48197403
scalar Leach.sink 	(unnamed) 	8.44018731
scalar Leach.sink 	(unnamed) 	8.398237994
scalar Leach.sink 	(unnamed) 	8.355979598
scalar Leach.sink 	(unnamed) 	8.313872816
scalar Leach.sink 	(unnamed) 	8.271986538
scalar Leach.sink 	(unnamed) 	8.229923822
scalar Leach.sink 	(unnamed) 	8.187920618
scalar Leach.sink 	(unnamed) 	8.14583672
scalar Leach.sink 	(unnamed) 	8.10375242
scalar Leach.sink 	(unnamed) 	8.061557936
scalar Leach.sink 	(unnamed) 	8.019145576
scalar Leach.sink 	(unnamed) 	7.976489622
scalar Leach.sink 	(unnamed) 	7.934282776
scalar Leach.sink 	(unnamed) 	7.89212318
scalar Leach.sink 	(unnamed) 	7.849951226
scalar Leach.sink 	(unnamed) 	7.807603044
scalar Leach.sink 	(unnamed) 	7.765328508
scalar Leach.sink 	(unnamed) 	7.72292777
scalar Leach.sink 	(unnamed) 	7.68090078
scalar Leach.sink 	(unnamed) 	7.638841154
scalar Leach.sink 	(unnamed) 	7.596873922
scalar Leach.sink 	(unnamed) 	7.554745216
scalar Leach.sink 	(unnamed) 	7.512476034
scalar Leach.sink 	(unnamed) 	7.469980924
scalar Leach.sink 	(unnamed) 	7.428098866
scalar Leach.sink 	(unnamed) 	7.386104432
scalar Leach.sink 	(unnamed) 	7.34407958
scalar Leach.sink 	(unnamed) 	7.30194285
scalar Leach.sink 	(unnamed) 	7.259552702
scalar Leach.sink 	(unnamed) 	7.217417048
scalar Leach.sink 	(unnamed) 	7.175273304
scalar Leach.sink 	(unnamed) 	7.13305573
scalar Leach.sink 	(unnamed) 	7.0906279279999
scalar Leach.sink 	(unnamed) 	7.04816318
scalar Leach.sink 	(unnamed) 	7.0057000819999
scalar Leach.sink 	(unnamed) 	6.9630228839999
scalar Leach.sink 	(unnamed) 	6.9212467279999
scalar Leach.sink 	(unnamed) 	6.8794219679999
scalar Leach.sink 	(unnamed) 	6.8374174499999
scalar Leach.sink 	(unnamed) 	6.795260086
scalar Leach.sink 	(unnamed) 	6.7530886099999
scalar Leach.sink 	(unnamed) 	6.7108814759999
scalar Leach.sink 	(unnamed) 	6.6688666099999
scalar Leach.sink 	(unnamed) 	6.6265926799999
scalar Leach.sink 	(unnamed) 	6.5844911699999
scalar Leach.sink 	(unnamed) 	6.5423320739999
scalar Leach.sink 	(unnamed) 	6.5000132199999
scalar Leach.sink 	(unnamed) 	6.4576755099999
scalar Leach.sink 	(unnamed) 	6.4157765819999
scalar Leach.sink 	(unnamed) 	6.3736810479999
scalar Leach.sink 	(unnamed) 	6.3312179159999
scalar Leach.sink 	(unnamed) 	6.2886286559999
scalar Leach.sink 	(unnamed) 	6.2462088659999
scalar Leach.sink 	(unnamed) 	6.2037610419999
scalar Leach.sink 	(unnamed) 	6.1616971379999
scalar Leach.sink 	(unnamed) 	6.1199443599999
scalar Leach.sink 	(unnamed) 	6.0780451639999
scalar Leach.sink 	(unnamed) 	6.0358552679999
scalar Leach.sink 	(unnamed) 	5.9935901179999
scalar Leach.sink 	(unnamed) 	5.9511854899999
scalar Leach.sink 	(unnamed) 	5.9091713419999
scalar Leach.sink 	(unnamed) 	5.8671236819999
scalar Leach.sink 	(unnamed) 	5.8248379719999
scalar Leach.sink 	(unnamed) 	5.7828314719999
scalar Leach.sink 	(unnamed) 	5.7407809759999
scalar Leach.sink 	(unnamed) 	5.6987623719999
scalar Leach.sink 	(unnamed) 	5.6566205239999
scalar Leach.sink 	(unnamed) 	5.6141575759999
scalar Leach.sink 	(unnamed) 	5.5719267579999
scalar Leach.sink 	(unnamed) 	5.5294493339999
scalar Leach.sink 	(unnamed) 	5.4867778559999
scalar Leach.sink 	(unnamed) 	5.4438526859999
scalar Leach.sink 	(unnamed) 	5.4019892399999
scalar Leach.sink 	(unnamed) 	5.3602054879999
scalar Leach.sink 	(unnamed) 	5.3183294099999
scalar Leach.sink 	(unnamed) 	5.2764025639999
scalar Leach.sink 	(unnamed) 	5.2345049499999
scalar Leach.sink 	(unnamed) 	5.1924970979999
scalar Leach.sink 	(unnamed) 	5.1503218159999
scalar Leach.sink 	(unnamed) 	5.1081442199999
scalar Leach.sink 	(unnamed) 	5.0656945379999
scalar Leach.sink 	(unnamed) 	5.0234543059999
scalar Leach.sink 	(unnamed) 	4.9810998979999
scalar Leach.sink 	(unnamed) 	4.9390298379999
scalar Leach.sink 	(unnamed) 	4.8967373719999
scalar Leach.sink 	(unnamed) 	4.8546545719999
scalar Leach.sink 	(unnamed) 	4.8123619679999
scalar Leach.sink 	(unnamed) 	4.7701587679999
scalar Leach.sink 	(unnamed) 	4.7279903199999
scalar Leach.sink 	(unnamed) 	4.6855468819999
scalar Leach.sink 	(unnamed) 	4.6434392319999
scalar Leach.sink 	(unnamed) 	4.6011926119999
scalar Leach.sink 	(unnamed) 	4.5591461819999
scalar Leach.sink 	(unnamed) 	4.5170803579999
scalar Leach.sink 	(unnamed) 	4.4749752179999
scalar Leach.sink 	(unnamed) 	4.4328895759999
scalar Leach.sink 	(unnamed) 	4.3907009419999
scalar Leach.sink 	(unnamed) 	4.3485963839999
scalar Leach.sink 	(unnamed) 	4.3062404359999
scalar Leach.sink 	(unnamed) 	4.2642628519999
scalar Leach.sink 	(unnamed) 	4.2222635419999
scalar Leach.sink 	(unnamed) 	4.1802647239999
scalar Leach.sink 	(unnamed) 	4.1380414939999
scalar Leach.sink 	(unnamed) 	4.0958013319999
scalar Leach.sink 	(unnamed) 	4.0531587119999
scalar Leach.sink 	(unnamed) 	4.0107190219999
scalar Leach.sink 	(unnamed) 	3.9683788479999
scalar Leach.sink 	(unnamed) 	3.9260275639999
scalar Leach.sink 	(unnamed) 	3.8842687359999
scalar Leach.sink 	(unnamed) 	3.8421002459999
scalar Leach.sink 	(unnamed) 	3.8001659019999
scalar Leach.sink 	(unnamed) 	3.7582913959999
scalar Leach.sink 	(unnamed) 	3.7159637999999
scalar Leach.sink 	(unnamed) 	3.6738400999999
scalar Leach.sink 	(unnamed) 	3.6318423519999
scalar Leach.sink 	(unnamed) 	3.5896160239999
scalar Leach.sink 	(unnamed) 	3.5472028759999
scalar Leach.sink 	(unnamed) 	3.5050498979999
scalar Leach.sink 	(unnamed) 	3.4627439739999
scalar Leach.sink 	(unnamed) 	3.4207301039999
scalar Leach.sink 	(unnamed) 	3.3784371659999
scalar Leach.sink 	(unnamed) 	3.3365260879999
scalar Leach.sink 	(unnamed) 	3.2944479519999
scalar Leach.sink 	(unnamed) 	3.2520149259999
scalar Leach.sink 	(unnamed) 	3.2095528739999
scalar Leach.sink 	(unnamed) 	3.1669863379999
scalar Leach.sink 	(unnamed) 	3.1248813779999
scalar Leach.sink 	(unnamed) 	3.0826436459999
scalar Leach.sink 	(unnamed) 	3.0405608919999
scalar Leach.sink 	(unnamed) 	2.9986169379999
scalar Leach.sink 	(unnamed) 	2.9566209259999
scalar Leach.sink 	(unnamed) 	2.9142011979999
scalar Leach.sink 	(unnamed) 	2.8723669299999
scalar Leach.sink 	(unnamed) 	2.8304424979999
scalar Leach.sink 	(unnamed) 	2.7884508559999
scalar Leach.sink 	(unnamed) 	2.7463707779999
scalar Leach.sink 	(unnamed) 	2.7041757479999
scalar Leach.sink 	(unnamed) 	2.6614198899999
scalar Leach.sink 	(unnamed) 	2.6191175579999
scalar Leach.sink 	(unnamed) 	2.5769268399999
scalar Leach.sink 	(unnamed) 	2.5346247839999
scalar Leach.sink 	(unnamed) 	2.4921906319999
scalar Leach.sink 	(unnamed) 	2.4501132259999
scalar Leach.sink 	(unnamed) 	2.4079585279999
scalar Leach.sink 	(unnamed) 	2.3656825539999
scalar Leach.sink 	(unnamed) 	2.3237779019999
scalar Leach.sink 	(unnamed) 	2.2816056759999
scalar Leach.sink 	(unnamed) 	2.2395219979999
scalar Leach.sink 	(unnamed) 	2.1972671639999
scalar Leach.sink 	(unnamed) 	2.1552063579999
scalar Leach.sink 	(unnamed) 	2.1133356419999
scalar Leach.sink 	(unnamed) 	2.0710127799999
scalar Leach.sink 	(unnamed) 	2.0290357299999
scalar Leach.sink 	(unnamed) 	1.9868414179999
scalar Leach.sink 	(unnamed) 	1.9445646819999
scalar Leach.sink 	(unnamed) 	1.9024139659999
scalar Leach.sink 	(unnamed) 	1.8599449439999
scalar Leach.sink 	(unnamed) 	1.8176864579999
scalar Leach.sink 	(unnamed) 	1.7752947779999
scalar Leach.sink 	(unnamed) 	1.7334251199999
scalar Leach.sink 	(unnamed) 	1.6913274059999
scalar Leach.sink 	(unnamed) 	1.6494587139999
scalar Leach.sink 	(unnamed) 	1.6068951019999
scalar Leach.sink 	(unnamed) 	1.5645750819999
scalar Leach.sink 	(unnamed) 	1.5222938759999
scalar Leach.sink 	(unnamed) 	1.4800990219999
scalar Leach.sink 	(unnamed) 	1.4381172759999
scalar Leach.sink 	(unnamed) 	1.3959296359999
scalar Leach.sink 	(unnamed) 	1.3535945959999
scalar Leach.sink 	(unnamed) 	1.3115028139999
scalar Leach.sink 	(unnamed) 	1.2694410579999
scalar Leach.sink 	(unnamed) 	1.2273486399999
scalar Leach.sink 	(unnamed) 	1.1854881539999
scalar Leach.sink 	(unnamed) 	1.1433998499999
scalar Leach.sink 	(unnamed) 	1.1010546999999
scalar Leach.sink 	(unnamed) 	1.0586147319999
scalar Leach.sink 	(unnamed) 	1.0166098559999
scalar Leach.sink 	(unnamed) 	0.97430603399993
scalar Leach.sink 	(unnamed) 	0.93191663799993
scalar Leach.sink 	(unnamed) 	0.88969674999993
scalar Leach.sink 	(unnamed) 	0.84762222799993
scalar Leach.sink 	(unnamed) 	0.80527916999993
scalar Leach.sink 	(unnamed) 	0.76341500799993
scalar Leach.sink 	(unnamed) 	0.72124872399993
scalar Leach.sink 	(unnamed) 	0.67907403799993
scalar Leach.sink 	(unnamed) 	0.63672693999993
scalar Leach.sink 	(unnamed) 	0.59434626799993
scalar Leach.sink 	(unnamed) 	0.55224363999993
scalar Leach.sink 	(unnamed) 	0.51012025199993
scalar Leach.sink 	(unnamed) 	0.46818506399993
scalar Leach.sink 	(unnamed) 	0.42589576599993
scalar Leach.sink 	(unnamed) 	0.38386005199993
scalar Leach.sink 	(unnamed) 	0.34160675199993
scalar Leach.sink 	(unnamed) 	0.29960212399993
scalar Leach.sink 	(unnamed) 	0.25755195999993
scalar Leach.sink 	(unnamed) 	0.21535114399993
scalar Leach.sink 	(unnamed) 	0.17291305599993
scalar Leach.sink 	(unnamed) 	0.13089437599993
scalar Leach.sink 	(unnamed) 	0.088563517999931
scalar Leach.sink 	(unnamed) 	0.046397865999931
scalar Leach.sink 	(unnamed) 	0.0047142159999313
scalar Leach.sink 	(unnamed) 	-0.037334338000069
scalar Leach.sink 	(unnamed) 	-0.079149666000069
scalar Leach.sink 	(unnamed) 	-0.12124497600007
scalar Leach.sink 	(unnamed) 	-0.16329267000007
scalar Leach.sink 	(unnamed) 	-0.20532224200007
scalar Leach.sink 	(unnamed) 	-0.24719594600007
scalar Leach.sink 	(unnamed) 	-0.28922639600007
scalar Leach.sink 	(unnamed) 	-0.33112161800007
scalar Leach.sink 	(unnamed) 	-0.37302986200007
scalar Leach.sink 	(unnamed) 	-0.41499991400007
scalar Leach.sink 	(unnamed) 	-0.45688363800007
scalar Leach.sink 	(unnamed) 	-0.49876736200007
scalar Leach.sink 	(unnamed) 	-0.54065108600007
scalar Leach.sink 	(unnamed) 	-0.58253481000007
scalar Leach.sink 	(unnamed) 	-0.62441853400007
scalar Leach.sink 	(unnamed) 	-0.66630225800007
scalar Leach.sink 	(unnamed) 	-0.70818598200007
scalar Leach.sink 	(unnamed) 	-0.75006970600007
scalar Leach.sink 	(unnamed) 	-0.79195343000007
scalar Leach.sink 	(unnamed) 	-0.83383715400007
scalar Leach.sink 	(unnamed) 	-0.87572087800007
scalar Leach.sink 	(unnamed) 	-0.91760460200007
scalar Leach.sink 	(unnamed) 	-0.95948832600007
scalar Leach.sink 	(unnamed) 	-1.0013720500001
scalar Leach.sink 	(unnamed) 	-1.0432557740001
scalar Leach.sink 	(unnamed) 	-1.0851394980001
scalar Leach.sink 	(unnamed) 	-1.1270232220001
scalar Leach.sink 	(unnamed) 	-1.1689069460001
scalar Leach.sink 	(unnamed) 	-1.2107906700001
scalar Leach.sink 	(unnamed) 	-1.2526743940001
scalar Leach.sink 	(unnamed) 	-1.2945581180001
scalar Leach.sink 	(unnamed) 	-1.3364418420001
scalar Leach.sink 	(unnamed) 	-1.3783255660001
scalar Leach.sink 	(unnamed) 	-1.4202092900001
scalar Leach.sink 	(unnamed) 	-1.4620930140001
scalar Leach.sink 	(unnamed) 	-1.5039767380001
scalar Leach.sink 	(unnamed) 	-1.5458604620001
scalar Leach.sink 	(unnamed) 	-1.5877441860001
scalar Leach.sink 	(unnamed) 	-1.6296279100001
scalar Leach.sink 	(unnamed) 	-1.6715116340001
scalar Leach.sink 	(unnamed) 	-1.7133953580001
scalar Leach.sink 	(unnamed) 	-1.7552790820001
scalar Leach.sink 	(unnamed) 	-1.7971628060001
scalar Leach.sink 	(unnamed) 	-1.8390465300001
scalar Leach.sink 	(unnamed) 	-1.8809302540001
scalar Leach.sink 	(unnamed) 	-1.9228139780001
scalar Leach.sink 	(unnamed) 	-1.9646977020001
scalar Leach.sink 	(unnamed) 	-2.0065814260001
scalar Leach.sink 	(unnamed) 	-2.0484651500001
scalar Leach.sink 	(unnamed) 	-2.0903488740001
scalar Leach.sink 	(unnamed) 	-2.1322325980001
scalar Leach.sink 	(unnamed) 	-2.1741163220001
scalar Leach.sink 	(unnamed) 	-2.2160000460001
scalar Leach.sink 	(unnamed) 	-2.2578837700001
scalar Leach.sink 	(unnamed) 	-2.2997674940001
scalar Leach.sink 	(unnamed) 	-2.3416512180001
scalar Leach.sink 	(unnamed) 	-2.3835349420001
scalar Leach.sink 	(unnamed) 	-2.4254186660001
scalar Leach.sink 	(unnamed) 	-2.4673023900001
scalar Leach.sink 	(unnamed) 	-2.5091861140001
scalar Leach.sink 	(unnamed) 	-2.5510698380001
scalar Leach.sink 	(unnamed) 	-2.5929535620001
scalar Leach.sink 	(unnamed) 	-2.6348372860001
scalar Leach.sink 	(unnamed) 	-2.6767210100001
scalar Leach.sink 	(unnamed) 	-2.7186047340001
scalar Leach.sink 	(unnamed) 	-2.7604884580001
version 2
run General-0-20141207-13:34:56-3820
attr configname General
attr datetime 20141207-13:34:56
attr experiment General
attr inifile omnetpp.ini
attr iterationvars ""
attr iterationvars2 $repetition=0
attr measurement ""
attr network Leach
attr processid 3820
attr repetition 0
attr replication #0
attr resultdir results
attr runnumber 0
attr seedset 0

scalar Leach.sink 	(unnamed) 	9.95790446
scalar Leach.sink 	(unnamed) 	9.915854352
scalar Leach.sink 	(unnamed) 	9.873720432
scalar Leach.sink 	(unnamed) 	9.831621236
scalar Leach.sink 	(unnamed) 	9.789441142
scalar Leach.sink 	(unnamed) 	9.747418976
scalar Leach.sink 	(unnamed) 	9.705571418
version 2
run General-0-20141207-13:39:36-3596
attr configname General
attr datetime 20141207-13:39:36
attr experiment General
attr inifile omnetpp.ini
attr iterationvars ""
attr iterationvars2 $repetition=0
attr measurement ""
attr network Leach
attr processid 3596
attr repetition 0
attr replication #0
attr resultdir results
attr runnumber 0
attr seedset 0

scalar Leach.sink 	(unnamed) 	9.95790446
scalar Leach.sink 	(unnamed) 	9.915854352
scalar Leach.sink 	(unnamed) 	9.873720432
scalar Leach.sink 	(unnamed) 	9.831621236
scalar Leach.sink 	(unnamed) 	9.789441142
scalar Leach.sink 	"Fist dead node: " 	0
scalar Leach.sink 	"At round: " 	0
scalar Leach.sink 	"Total dead node: " 	0
scalar Leach.sink 	"TotalRound: " 	6
version 2
run General-0-20141207-13:44:03-5220
attr configname General
attr datetime 20141207-13:44:03
attr experiment General
attr inifile omnetpp.ini
attr iterationvars ""
attr iterationvars2 $repetition=0
attr measurement ""
attr network Leach
attr processid 5220
attr repetition 0
attr replication #0
attr resultdir results
attr runnumber 0
attr seedset 0

scalar Leach.sink 	(unnamed) 	9.95790446
scalar Leach.sink 	(unnamed) 	9.915854352
scalar Leach.sink 	(unnamed) 	9.873720432
scalar Leach.sink 	(unnamed) 	9.831621236
scalar Leach.sink 	(unnamed) 	9.789441142
scalar Leach.sink 	(unnamed) 	9.747418976
scalar Leach.sink 	(unnamed) 	9.705571418
scalar Leach.sink 	(unnamed) 	9.663565518
scalar Leach.sink 	(unnamed) 	9.621396462
scalar Leach.sink 	(unnamed) 	9.579100412
scalar Leach.sink 	(unnamed) 	9.536866644
scalar Leach.sink 	(unnamed) 	9.494523416
scalar Leach.sink 	(unnamed) 	9.452126052
scalar Leach.sink 	"Fist dead node: " 	0
scalar Leach.sink 	"At round: " 	0
scalar Leach.sink 	"Total dead node: " 	0
scalar Leach.sink 	"TotalRound: " 	14
version 2
run General-0-20141207-13:45:32-4792
attr configname General
attr datetime 20141207-13:45:32
attr experiment General
attr inifile omnetpp.ini
attr iterationvars ""
attr iterationvars2 $repetition=0
attr measurement ""
attr network Leach
attr processid 4792
attr repetition 0
attr replication #0
attr resultdir results
attr runnumber 0
attr seedset 0

scalar Leach.sink 	(unnamed) 	9.957986604
scalar Leach.sink 	(unnamed) 	9.916063376
scalar Leach.sink 	(unnamed) 	9.874184032
scalar Leach.sink 	(unnamed) 	9.832279654
scalar Leach.sink 	(unnamed) 	9.79023221
scalar Leach.sink 	(unnamed) 	9.748278762
scalar Leach.sink 	(unnamed) 	9.706339044
scalar Leach.sink 	(unnamed) 	9.664228694
scalar Leach.sink 	(unnamed) 	9.621998226
scalar Leach.sink 	(unnamed) 	9.579776492
scalar Leach.sink 	(unnamed) 	9.537411046
scalar Leach.sink 	(unnamed) 	9.495100434
scalar Leach.sink 	(unnamed) 	9.453081952
scalar Leach.sink 	(unnamed) 	9.410998072
scalar Leach.sink 	(unnamed) 	9.369081884
scalar Leach.sink 	(unnamed) 	9.326858624
scalar Leach.sink 	(unnamed) 	9.284606952
scalar Leach.sink 	(unnamed) 	9.242142278
scalar Leach.sink 	(unnamed) 	9.200071094
scalar Leach.sink 	(unnamed) 	9.157913636
scalar Leach.sink 	(unnamed) 	9.11571641
scalar Leach.sink 	(unnamed) 	9.073538854
scalar Leach.sink 	(unnamed) 	9.031360776
scalar Leach.sink 	(unnamed) 	8.989009836
scalar Leach.sink 	(unnamed) 	8.94709579
scalar Leach.sink 	(unnamed) 	8.904911724
scalar Leach.sink 	(unnamed) 	8.862826368
scalar Leach.sink 	(unnamed) 	8.820668472
scalar Leach.sink 	(unnamed) 	8.77858743
scalar Leach.sink 	(unnamed) 	8.736521726
scalar Leach.sink 	(unnamed) 	8.694403452
scalar Leach.sink 	(unnamed) 	8.652064972
scalar Leach.sink 	(unnamed) 	8.609648018
scalar Leach.sink 	(unnamed) 	8.5672637
scalar Leach.sink 	(unnamed) 	8.52465375
scalar Leach.sink 	(unnamed) 	8.48197403
scalar Leach.sink 	(unnamed) 	8.44018731
scalar Leach.sink 	(unnamed) 	8.398237994
scalar Leach.sink 	(unnamed) 	8.355979598
scalar Leach.sink 	(unnamed) 	8.313872816
scalar Leach.sink 	(unnamed) 	8.271986538
scalar Leach.sink 	(unnamed) 	8.229923822
scalar Leach.sink 	(unnamed) 	8.187920618
scalar Leach.sink 	(unnamed) 	8.14583672
scalar Leach.sink 	(unnamed) 	8.10375242
scalar Leach.sink 	(unnamed) 	8.061557936
scalar Leach.sink 	(unnamed) 	8.019145576
scalar Leach.sink 	(unnamed) 	7.976489622
scalar Leach.sink 	(unnamed) 	7.934282776
scalar Leach.sink 	(unnamed) 	7.89212318
scalar Leach.sink 	(unnamed) 	7.849951226
scalar Leach.sink 	(unnamed) 	7.807603044
scalar Leach.sink 	(unnamed) 	7.765328508
scalar Leach.sink 	(unnamed) 	7.72292777
scalar Leach.sink 	(unnamed) 	7.68090078
scalar Leach.sink 	(unnamed) 	7.638841154
scalar Leach.sink 	(unnamed) 	7.596873922
scalar Leach.sink 	(unnamed) 	7.554745216
scalar Leach.sink 	(unnamed) 	7.512476034
scalar Leach.sink 	(unnamed) 	7.469980924
scalar Leach.sink 	(unnamed) 	7.428098866
scalar Leach.sink 	(unnamed) 	7.386104432
scalar Leach.sink 	(unnamed) 	7.34407958
scalar Leach.sink 	(unnamed) 	7.30194285
scalar Leach.sink 	(unnamed) 	7.259552702
scalar Leach.sink 	(unnamed) 	7.217417048
scalar Leach.sink 	(unnamed) 	7.175273304
scalar Leach.sink 	(unnamed) 	7.13305573
scalar Leach.sink 	(unnamed) 	7.0906279279999
scalar Leach.sink 	(unnamed) 	7.04816318
scalar Leach.sink 	(unnamed) 	7.0057000819999
scalar Leach.sink 	(unnamed) 	6.9630228839999
scalar Leach.sink 	(unnamed) 	6.9212467279999
scalar Leach.sink 	(unnamed) 	6.8794219679999
scalar Leach.sink 	(unnamed) 	6.8374174499999
scalar Leach.sink 	(unnamed) 	6.795260086
scalar Leach.sink 	(unnamed) 	6.7530886099999
scalar Leach.sink 	(unnamed) 	6.7108814759999
scalar Leach.sink 	(unnamed) 	6.6688666099999
scalar Leach.sink 	(unnamed) 	6.6265926799999
scalar Leach.sink 	(unnamed) 	6.5844911699999
scalar Leach.sink 	(unnamed) 	6.5423320739999
scalar Leach.sink 	(unnamed) 	6.5000132199999
scalar Leach.sink 	"Fist dead node: " 	0
scalar Leach.sink 	"At round: " 	0
scalar Leach.sink 	"Total dead node: " 	0
scalar Leach.sink 	"TotalRound: " 	84
version 2
run General-0-20141207-13:47:21-3376
attr configname General
attr datetime 20141207-13:47:21
attr experiment General
attr inifile omnetpp.ini
attr iterationvars ""
attr iterationvars2 $repetition=0
attr measurement ""
attr network Leach
attr processid 3376
attr repetition 0
attr replication #0
attr resultdir results
attr runnumber 0
attr seedset 0

scalar Leach.sink 	(unnamed) 	9.957986604
scalar Leach.sink 	(unnamed) 	9.916063376
scalar Leach.sink 	(unnamed) 	9.874184032
scalar Leach.sink 	(unnamed) 	9.832279654
scalar Leach.sink 	(unnamed) 	9.79023221
scalar Leach.sink 	(unnamed) 	9.748278762
scalar Leach.sink 	(unnamed) 	9.706339044
scalar Leach.sink 	(unnamed) 	9.664228694
scalar Leach.sink 	(unnamed) 	9.621998226
scalar Leach.sink 	(unnamed) 	9.579776492
scalar Leach.sink 	(unnamed) 	9.537411046
scalar Leach.sink 	(unnamed) 	9.495100434
scalar Leach.sink 	(unnamed) 	9.453081952
scalar Leach.sink 	(unnamed) 	9.410998072
scalar Leach.sink 	(unnamed) 	9.369081884
scalar Leach.sink 	(unnamed) 	9.326858624
scalar Leach.sink 	(unnamed) 	9.284606952
scalar Leach.sink 	(unnamed) 	9.242142278
scalar Leach.sink 	(unnamed) 	9.200071094
scalar Leach.sink 	(unnamed) 	9.157913636
scalar Leach.sink 	(unnamed) 	9.11571641
scalar Leach.sink 	(unnamed) 	9.073538854
scalar Leach.sink 	(unnamed) 	9.031360776
scalar Leach.sink 	(unnamed) 	8.989009836
scalar Leach.sink 	(unnamed) 	8.94709579
scalar Leach.sink 	(unnamed) 	8.904911724
scalar Leach.sink 	(unnamed) 	8.862826368
scalar Leach.sink 	(unnamed) 	8.820668472
scalar Leach.sink 	(unnamed) 	8.77858743
scalar Leach.sink 	(unnamed) 	8.736521726
scalar Leach.sink 	(unnamed) 	8.694403452
scalar Leach.sink 	(unnamed) 	8.652064972
scalar Leach.sink 	(unnamed) 	8.609648018
scalar Leach.sink 	(unnamed) 	8.5672637
scalar Leach.sink 	(unnamed) 	8.52465375
scalar Leach.sink 	(unnamed) 	8.48197403
scalar Leach.sink 	(unnamed) 	8.44018731
scalar Leach.sink 	(unnamed) 	8.398237994
scalar Leach.sink 	(unnamed) 	8.355979598
scalar Leach.sink 	(unnamed) 	8.313872816
scalar Leach.sink 	(unnamed) 	8.271986538
scalar Leach.sink 	(unnamed) 	8.229923822
scalar Leach.sink 	(unnamed) 	8.187920618
scalar Leach.sink 	(unnamed) 	8.14583672
scalar Leach.sink 	(unnamed) 	8.10375242
scalar Leach.sink 	(unnamed) 	8.061557936
scalar Leach.sink 	(unnamed) 	8.019145576
scalar Leach.sink 	(unnamed) 	7.976489622
scalar Leach.sink 	(unnamed) 	7.934282776
scalar Leach.sink 	(unnamed) 	7.89212318
scalar Leach.sink 	(unnamed) 	7.849951226
scalar Leach.sink 	(unnamed) 	7.807603044
scalar Leach.sink 	(unnamed) 	7.765328508
scalar Leach.sink 	(unnamed) 	7.72292777
scalar Leach.sink 	(unnamed) 	7.68090078
scalar Leach.sink 	(unnamed) 	7.638841154
scalar Leach.sink 	(unnamed) 	7.596873922
scalar Leach.sink 	(unnamed) 	7.554745216
scalar Leach.sink 	(unnamed) 	7.512476034
scalar Leach.sink 	(unnamed) 	7.469980924
scalar Leach.sink 	(unnamed) 	7.428098866
scalar Leach.sink 	(unnamed) 	7.386104432
scalar Leach.sink 	(unnamed) 	7.34407958
scalar Leach.sink 	(unnamed) 	7.30194285
scalar Leach.sink 	(unnamed) 	7.259552702
scalar Leach.sink 	(unnamed) 	7.217417048
scalar Leach.sink 	(unnamed) 	7.175273304
scalar Leach.sink 	(unnamed) 	7.13305573
scalar Leach.sink 	(unnamed) 	7.0906279279999
scalar Leach.sink 	(unnamed) 	7.04816318
scalar Leach.sink 	(unnamed) 	7.0057000819999
scalar Leach.sink 	(unnamed) 	6.9630228839999
scalar Leach.sink 	(unnamed) 	6.9212467279999
scalar Leach.sink 	"Fist dead node: " 	0
scalar Leach.sink 	"At round: " 	0
scalar Leach.sink 	"Total dead node: " 	0
scalar Leach.sink 	"TotalRound: " 	74
version 2
run General-0-20141207-14:04:47-4900
attr configname General
attr datetime 20141207-14:04:47
attr experiment General
attr inifile omnetpp.ini
attr iterationvars ""
attr iterationvars2 $repetition=0
attr measurement ""
attr network Leach
attr processid 4900
attr repetition 0
attr replication #0
attr resultdir results
attr runnumber 0
attr seedset 0

scalar Leach.sink 	(unnamed) 	7.964506852
scalar Leach.sink 	(unnamed) 	7.928878786
scalar Leach.sink 	(unnamed) 	7.893863796
scalar Leach.sink 	(unnamed) 	7.858888418
scalar Leach.sink 	(unnamed) 	7.823717588
scalar Leach.sink 	(unnamed) 	7.788099084
scalar Leach.sink 	(unnamed) 	7.75282225
scalar Leach.sink 	(unnamed) 	7.717830284
scalar Leach.sink 	(unnamed) 	7.68258207
scalar Leach.sink 	(unnamed) 	7.647662264
scalar Leach.sink 	(unnamed) 	7.612551084
scalar Leach.sink 	(unnamed) 	7.576678002
scalar Leach.sink 	(unnamed) 	7.541531512
scalar Leach.sink 	(unnamed) 	7.505494758
scalar Leach.sink 	(unnamed) 	7.47004275
scalar Leach.sink 	(unnamed) 	7.433545388
scalar Leach.sink 	(unnamed) 	7.397461802
scalar Leach.sink 	(unnamed) 	7.361661878
scalar Leach.sink 	(unnamed) 	7.326219772
scalar Leach.sink 	(unnamed) 	7.29147479
scalar Leach.sink 	(unnamed) 	7.256627638
scalar Leach.sink 	(unnamed) 	7.22157135
scalar Leach.sink 	(unnamed) 	7.186242944
scalar Leach.sink 	(unnamed) 	7.150953326
scalar Leach.sink 	(unnamed) 	7.115593102
scalar Leach.sink 	(unnamed) 	7.079943694
scalar Leach.sink 	(unnamed) 	7.043767796
scalar Leach.sink 	(unnamed) 	7.008717068
scalar Leach.sink 	(unnamed) 	6.973419012
scalar Leach.sink 	(unnamed) 	6.938020392
scalar Leach.sink 	(unnamed) 	6.902340176
scalar Leach.sink 	(unnamed) 	6.866341952
scalar Leach.sink 	(unnamed) 	6.830911986
scalar Leach.sink 	(unnamed) 	6.795342562
scalar Leach.sink 	(unnamed) 	6.759636446
scalar Leach.sink 	(unnamed) 	6.723824696
scalar Leach.sink 	(unnamed) 	6.688524902
scalar Leach.sink 	(unnamed) 	6.652786584
scalar Leach.sink 	(unnamed) 	6.617779374
scalar Leach.sink 	(unnamed) 	6.582650926
scalar Leach.sink 	(unnamed) 	6.547425424
scalar Leach.sink 	(unnamed) 	6.512284304
scalar Leach.sink 	(unnamed) 	6.47687819
scalar Leach.sink 	(unnamed) 	6.441364472
scalar Leach.sink 	(unnamed) 	6.405765056
scalar Leach.sink 	(unnamed) 	6.37007433
scalar Leach.sink 	(unnamed) 	6.334160196
scalar Leach.sink 	(unnamed) 	6.297897256
scalar Leach.sink 	(unnamed) 	6.262245764
scalar Leach.sink 	(unnamed) 	6.226480494
scalar Leach.sink 	(unnamed) 	6.190542698
scalar Leach.sink 	(unnamed) 	6.154530616
scalar Leach.sink 	(unnamed) 	6.118328848
scalar Leach.sink 	(unnamed) 	6.081630236
scalar Leach.sink 	(unnamed) 	6.046565702
scalar Leach.sink 	(unnamed) 	6.011218128
scalar Leach.sink 	(unnamed) 	5.97562943
scalar Leach.sink 	(unnamed) 	5.940761326
scalar Leach.sink 	(unnamed) 	5.905768628
scalar Leach.sink 	(unnamed) 	5.870686556
scalar Leach.sink 	(unnamed) 	5.83553817
scalar Leach.sink 	(unnamed) 	5.800353868
scalar Leach.sink 	(unnamed) 	5.764985422
scalar Leach.sink 	(unnamed) 	5.729296138
scalar Leach.sink 	(unnamed) 	5.694154364
scalar Leach.sink 	(unnamed) 	5.658887568
scalar Leach.sink 	(unnamed) 	5.623422302
scalar Leach.sink 	(unnamed) 	5.587918578
scalar Leach.sink 	(unnamed) 	5.552251554
scalar Leach.sink 	(unnamed) 	5.516326988
scalar Leach.sink 	(unnamed) 	5.480327362
scalar Leach.sink 	(unnamed) 	5.444294378
scalar Leach.sink 	(unnamed) 	5.408659678
scalar Leach.sink 	(unnamed) 	5.372837214
scalar Leach.sink 	(unnamed) 	5.336853852
scalar Leach.sink 	(unnamed) 	5.300531702
scalar Leach.sink 	(unnamed) 	5.26501362
scalar Leach.sink 	(unnamed) 	5.229363546
version 2
run General-0-20141207-16:49:41-4656
attr configname General
attr datetime 20141207-16:49:41
attr experiment General
attr inifile omnetpp.ini
attr iterationvars ""
attr iterationvars2 $repetition=0
attr measurement ""
attr network Leach
attr processid 4656
attr repetition 0
attr replication #0
attr resultdir results
attr runnumber 0
attr seedset 0

scalar Leach.sink 	(unnamed) 	7.964506852
scalar Leach.sink 	(unnamed) 	7.928878786
scalar Leach.sink 	(unnamed) 	7.893863796
scalar Leach.sink 	(unnamed) 	7.858888418
scalar Leach.sink 	(unnamed) 	7.823717588
scalar Leach.sink 	(unnamed) 	7.788099084
scalar Leach.sink 	(unnamed) 	7.75282225
scalar Leach.sink 	(unnamed) 	7.717830284
scalar Leach.sink 	(unnamed) 	7.68258207
scalar Leach.sink 	(unnamed) 	7.647662264
scalar Leach.sink 	(unnamed) 	7.612551084
scalar Leach.sink 	(unnamed) 	7.576678002
scalar Leach.sink 	(unnamed) 	7.541531512
scalar Leach.sink 	(unnamed) 	7.505494758
scalar Leach.sink 	(unnamed) 	7.47004275
scalar Leach.sink 	(unnamed) 	7.433545388
scalar Leach.sink 	(unnamed) 	7.397461802
scalar Leach.sink 	(unnamed) 	7.361661878
scalar Leach.sink 	(unnamed) 	7.326219772
scalar Leach.sink 	(unnamed) 	7.29147479
scalar Leach.sink 	(unnamed) 	7.256627638
scalar Leach.sink 	(unnamed) 	7.22157135
scalar Leach.sink 	(unnamed) 	7.186242944
scalar Leach.sink 	(unnamed) 	7.150953326
scalar Leach.sink 	(unnamed) 	7.115593102
scalar Leach.sink 	(unnamed) 	7.079943694
scalar Leach.sink 	(unnamed) 	7.043767796
scalar Leach.sink 	(unnamed) 	7.008717068
scalar Leach.sink 	(unnamed) 	6.973419012
scalar Leach.sink 	(unnamed) 	6.938020392
scalar Leach.sink 	(unnamed) 	6.902340176
scalar Leach.sink 	(unnamed) 	6.866341952
scalar Leach.sink 	(unnamed) 	6.830911986
scalar Leach.sink 	(unnamed) 	6.795342562
scalar Leach.sink 	(unnamed) 	6.759636446
scalar Leach.sink 	(unnamed) 	6.723824696
scalar Leach.sink 	(unnamed) 	6.688524902
scalar Leach.sink 	(unnamed) 	6.652786584
scalar Leach.sink 	(unnamed) 	6.617779374
scalar Leach.sink 	(unnamed) 	6.582650926
scalar Leach.sink 	(unnamed) 	6.547425424
scalar Leach.sink 	(unnamed) 	6.512284304
scalar Leach.sink 	(unnamed) 	6.47687819
scalar Leach.sink 	(unnamed) 	6.441364472
scalar Leach.sink 	(unnamed) 	6.405765056
scalar Leach.sink 	(unnamed) 	6.37007433
scalar Leach.sink 	(unnamed) 	6.334160196
scalar Leach.sink 	(unnamed) 	6.297897256
scalar Leach.sink 	(unnamed) 	6.262245764
scalar Leach.sink 	(unnamed) 	6.226480494
scalar Leach.sink 	(unnamed) 	6.190542698
scalar Leach.sink 	(unnamed) 	6.154530616
scalar Leach.sink 	(unnamed) 	6.118328848
scalar Leach.sink 	(unnamed) 	6.081630236
scalar Leach.sink 	(unnamed) 	6.046565702
scalar Leach.sink 	(unnamed) 	6.011218128
scalar Leach.sink 	(unnamed) 	5.97562943
scalar Leach.sink 	(unnamed) 	5.940761326
scalar Leach.sink 	(unnamed) 	5.905768628
scalar Leach.sink 	(unnamed) 	5.870686556
scalar Leach.sink 	(unnamed) 	5.83553817
scalar Leach.sink 	(unnamed) 	5.800353868
scalar Leach.sink 	(unnamed) 	5.764985422
scalar Leach.sink 	(unnamed) 	5.729296138
scalar Leach.sink 	(unnamed) 	5.694154364
scalar Leach.sink 	(unnamed) 	5.658887568
scalar Leach.sink 	(unnamed) 	5.623422302
scalar Leach.sink 	(unnamed) 	5.587918578
scalar Leach.sink 	(unnamed) 	5.552251554
scalar Leach.sink 	(unnamed) 	5.516326988
scalar Leach.sink 	(unnamed) 	5.480327362
scalar Leach.sink 	(unnamed) 	5.444294378
scalar Leach.sink 	(unnamed) 	5.408659678
scalar Leach.sink 	(unnamed) 	5.372837214
scalar Leach.sink 	(unnamed) 	5.336853852
scalar Leach.sink 	(unnamed) 	5.300531702
scalar Leach.sink 	(unnamed) 	5.26501362
scalar Leach.sink 	(unnamed) 	5.229363546
scalar Leach.sink 	(unnamed) 	5.19359519
scalar Leach.sink 	(unnamed) 	5.1582015
scalar Leach.sink 	(unnamed) 	5.122461414
scalar Leach.sink 	(unnamed) 	5.08774862
scalar Leach.sink 	(unnamed) 	5.0528607559999
scalar Leach.sink 	(unnamed) 	5.017863002
scalar Leach.sink 	(unnamed) 	4.982632972
scalar Leach.sink 	(unnamed) 	4.946705834
scalar Leach.sink 	(unnamed) 	4.911203184
scalar Leach.sink 	(unnamed) 	4.875607776
scalar Leach.sink 	(unnamed) 	4.839916264
scalar Leach.sink 	(unnamed) 	4.804177516
scalar Leach.sink 	(unnamed) 	4.7689513119999
scalar Leach.sink 	(unnamed) 	4.7333742719999
scalar Leach.sink 	(unnamed) 	4.697626886
scalar Leach.sink 	(unnamed) 	4.661674558
scalar Leach.sink 	(unnamed) 	4.62624631
scalar Leach.sink 	(unnamed) 	4.591239586
scalar Leach.sink 	(unnamed) 	4.556094432
scalar Leach.sink 	(unnamed) 	4.520930088
scalar Leach.sink 	(unnamed) 	4.48574827
scalar Leach.sink 	(unnamed) 	4.450384162
scalar Leach.sink 	(unnamed) 	4.4148988739999
scalar Leach.sink 	(unnamed) 	4.378587488
scalar Leach.sink 	(unnamed) 	4.34283403
scalar Leach.sink 	(unnamed) 	4.3069918139999
scalar Leach.sink 	(unnamed) 	4.2709407
scalar Leach.sink 	(unnamed) 	4.2343348139999
scalar Leach.sink 	(unnamed) 	4.198028118
scalar Leach.sink 	(unnamed) 	4.1619482479999
scalar Leach.sink 	(unnamed) 	4.1263444259999
scalar Leach.sink 	(unnamed) 	4.0910730979999
scalar Leach.sink 	(unnamed) 	4.055543186
scalar Leach.sink 	(unnamed) 	4.0203127339999
scalar Leach.sink 	(unnamed) 	3.9849659939999
scalar Leach.sink 	(unnamed) 	3.9501770439999
scalar Leach.sink 	(unnamed) 	3.9153508879999
scalar Leach.sink 	(unnamed) 	3.8804883999999
scalar Leach.sink 	(unnamed) 	3.845512342
scalar Leach.sink 	(unnamed) 	3.8104496599999
scalar Leach.sink 	(unnamed) 	3.7752098519999
scalar Leach.sink 	(unnamed) 	3.7398447699999
scalar Leach.sink 	(unnamed) 	3.7042828219999
scalar Leach.sink 	(unnamed) 	3.6686143239999
scalar Leach.sink 	(unnamed) 	3.6332389039999
scalar Leach.sink 	(unnamed) 	3.5972608839999
scalar Leach.sink 	(unnamed) 	3.5607769739999
scalar Leach.sink 	(unnamed) 	3.5240456919999
scalar Leach.sink 	(unnamed) 	3.4881587459999
scalar Leach.sink 	(unnamed) 	3.4527816739999
scalar Leach.sink 	(unnamed) 	3.4173282459999
scalar Leach.sink 	(unnamed) 	3.3816446179999
scalar Leach.sink 	(unnamed) 	3.3463745759999
scalar Leach.sink 	(unnamed) 	3.3106338939999
scalar Leach.sink 	(unnamed) 	3.2752254259999
scalar Leach.sink 	(unnamed) 	3.2396734199999
scalar Leach.sink 	(unnamed) 	3.2048910719999
scalar Leach.sink 	(unnamed) 	3.1684058679999
scalar Leach.sink 	(unnamed) 	3.1333770639999
scalar Leach.sink 	(unnamed) 	3.0982282279999
scalar Leach.sink 	(unnamed) 	3.0623123859999
scalar Leach.sink 	(unnamed) 	3.0268839819999
scalar Leach.sink 	(unnamed) 	2.9921508519999
scalar Leach.sink 	(unnamed) 	2.9560727459999
scalar Leach.sink 	(unnamed) 	2.9211212239999
scalar Leach.sink 	(unnamed) 	2.8861094159999
scalar Leach.sink 	(unnamed) 	2.8506605859999
scalar Leach.sink 	(unnamed) 	2.8150702979999
scalar Leach.sink 	(unnamed) 	2.7793164519999
scalar Leach.sink 	(unnamed) 	2.7430552959999
scalar Leach.sink 	(unnamed) 	2.7075231639999
scalar Leach.sink 	(unnamed) 	2.6723581239999
scalar Leach.sink 	(unnamed) 	2.6365972959999
scalar Leach.sink 	(unnamed) 	2.6012922059999
scalar Leach.sink 	(unnamed) 	2.5659085979999
scalar Leach.sink 	(unnamed) 	2.5303848199999
scalar Leach.sink 	(unnamed) 	2.4947162479999
scalar Leach.sink 	(unnamed) 	2.4590060879999
scalar Leach.sink 	(unnamed) 	2.4230156799999
scalar Leach.sink 	(unnamed) 	2.3877948439999
scalar Leach.sink 	(unnamed) 	2.3521005919999
scalar Leach.sink 	(unnamed) 	2.3162244479999
scalar Leach.sink 	(unnamed) 	2.2806207399999
scalar Leach.sink 	(unnamed) 	2.2451267019999
scalar Leach.sink 	(unnamed) 	2.2096004019999
scalar Leach.sink 	(unnamed) 	2.1745950479999
scalar Leach.sink 	(unnamed) 	2.1390972239999
scalar Leach.sink 	(unnamed) 	2.1038444379999
scalar Leach.sink 	(unnamed) 	2.0676430939999
scalar Leach.sink 	(unnamed) 	2.0326942619999
scalar Leach.sink 	(unnamed) 	1.9964026499999
scalar Leach.sink 	(unnamed) 	1.9609148099999
scalar Leach.sink 	(unnamed) 	1.9260573359999
scalar Leach.sink 	(unnamed) 	1.8908255659999
scalar Leach.sink 	(unnamed) 	1.8557467419999
scalar Leach.sink 	(unnamed) 	1.8201409839999
scalar Leach.sink 	(unnamed) 	1.7849609219999
scalar Leach.sink 	(unnamed) 	1.7495422839999
scalar Leach.sink 	(unnamed) 	1.7136655519999
scalar Leach.sink 	(unnamed) 	1.6781084979999
scalar Leach.sink 	(unnamed) 	1.6427123619999
scalar Leach.sink 	(unnamed) 	1.6068503659999
scalar Leach.sink 	(unnamed) 	1.5710318779999
scalar Leach.sink 	(unnamed) 	1.5351388259999
scalar Leach.sink 	(unnamed) 	1.4989803319999
scalar Leach.sink 	(unnamed) 	1.4632785519999
scalar Leach.sink 	(unnamed) 	1.4274569379999
scalar Leach.sink 	(unnamed) 	1.3918033159999
scalar Leach.sink 	(unnamed) 	1.3562281419999
scalar Leach.sink 	(unnamed) 	1.3212373219999
scalar Leach.sink 	(unnamed) 	1.2853990719999
scalar Leach.sink 	(unnamed) 	1.2506552099999
scalar Leach.sink 	(unnamed) 	1.2158391379999
scalar Leach.sink 	(unnamed) 	1.1805663539999
scalar Leach.sink 	(unnamed) 	1.1447588059999
scalar Leach.sink 	(unnamed) 	1.1091344519999
scalar Leach.sink 	(unnamed) 	1.0735891459999
scalar Leach.sink 	(unnamed) 	1.0385566779999
scalar Leach.sink 	(unnamed) 	1.0030744579999
scalar Leach.sink 	(unnamed) 	0.96790847799994
scalar Leach.sink 	(unnamed) 	0.93240226599994
scalar Leach.sink 	(unnamed) 	0.89702859599994
scalar Leach.sink 	(unnamed) 	0.85999404999994
scalar Leach.sink 	(unnamed) 	0.82437294999994
scalar Leach.sink 	(unnamed) 	0.78904518999994
scalar Leach.sink 	(unnamed) 	0.75361702999994
scalar Leach.sink 	(unnamed) 	0.71788493799994
scalar Leach.sink 	(unnamed) 	0.68265836999994
scalar Leach.sink 	(unnamed) 	0.64705054999994
scalar Leach.sink 	(unnamed) 	0.61115419599994
scalar Leach.sink 	(unnamed) 	0.57586389399994
scalar Leach.sink 	(unnamed) 	0.54038883399994
scalar Leach.sink 	(unnamed) 	0.50454210599994
scalar Leach.sink 	(unnamed) 	0.46874979799994
scalar Leach.sink 	(unnamed) 	0.43288242799994
scalar Leach.sink 	(unnamed) 	0.39805496799994
scalar Leach.sink 	(unnamed) 	0.36178336399994
scalar Leach.sink 	(unnamed) 	0.32622769599994
scalar Leach.sink 	(unnamed) 	0.29142408399994
scalar Leach.sink 	(unnamed) 	0.25548524399994
scalar Leach.sink 	(unnamed) 	0.22047838399994
scalar Leach.sink 	(unnamed) 	0.18506246399994
scalar Leach.sink 	(unnamed) 	0.14891327199994
scalar Leach.sink 	(unnamed) 	0.11352787599994
scalar Leach.sink 	(unnamed) 	0.078613925999945
scalar Leach.sink 	(unnamed) 	0.043695113999945
scalar Leach.sink 	(unnamed) 	0.0081629599999448
scalar Leach.sink 	(unnamed) 	-0.027239506000055
scalar Leach.sink 	(unnamed) 	-0.062764662000055
scalar Leach.sink 	(unnamed) 	-0.098630752000055
[...]
attr datetime 20180402-16:08:23
attr experiment General
attr inifile omnetpp.ini
attr iterationvars ""
attr iterationvars2 $repetition=0
attr measurement ""
attr network HCR
attr processid 2268
attr repetition 0
attr replication #0
attr resultdir results
attr runnumber 0
attr seedset 0

scalar HCR.sink 	"TotalEnergy: " 	6715810979849
version 2
run General-0-20180402-16:13:45-2403
attr configname General
attr datetime 20180402-16:13:45
attr experiment General
attr inifile omnetpp.ini
attr iterationvars ""
attr iterationvars2 $repetition=0
attr measurement ""
attr network HCR
attr processid 2403
attr repetition 0
attr replication #0
attr resultdir results
attr runnumber 0
attr seedset 0

scalar HCR.sink 	"TotalEnergy: " 	4199111936373
version 2
run General-0-20180402-16:18:29-2508
attr configname General
attr datetime 20180402-16:18:29
attr experiment General
attr inifile omnetpp.ini
attr iterationvars ""
attr iterationvars2 $repetition=0
attr measurement ""
attr network HCR
attr processid 2508
attr repetition 0
attr replication #0
attr resultdir results
attr runnumber 0
attr seedset 0

scalar HCR.sink 	"TotalEnergy: " 	19980222944789
version 2
run General-0-20180405-14:38:33-2149
attr configname General
attr datetime 20180405-14:38:33
attr experiment General
attr inifile omnetpp.ini
attr iterationvars ""
attr iterationvars2 $repetition=0
attr measurement ""
attr network HCR
attr processid 2149
attr repetition 0
attr replication #0
attr resultdir results
attr runnumber 0
attr seedset 0

scalar HCR.sink 	"TotalEnergy: " 	7332791174397.6
version 2
run General-0-20180405-16:00:48-2173
attr configname General
attr datetime 20180405-16:00:48
attr experiment General
attr inifile omnetpp.ini
attr iterationvars ""
attr iterationvars2 $repetition=0
attr measurement ""
attr network HCR
attr processid 2173
attr repetition 0
attr replication #0
attr resultdir results
attr runnumber 0
attr seedset 0

scalar HCR.sink 	"TotalEnergy: " 	197462584872.39
version 2
run General-0-20180526-15:09:22-8992
attr configname General
attr datetime 20180526-15:09:22
attr experiment General
attr inifile omnetpp.ini
attr iterationvars ""
attr iterationvars2 $repetition=0
attr measurement ""
attr network HCR
attr processid 8992
attr repetition 0
attr replication #0
attr resultdir results
attr runnumber 0
attr seedset 0

scalar HCR.sink 	"TotalEnergy: " 	1060729597743
version 2
run General-0-20180526-15:15:41-10008
attr configname General
attr datetime 20180526-15:15:41
attr experiment General
attr inifile omnetpp.ini
attr iterationvars ""
attr iterationvars2 $repetition=0
attr measurement ""
attr network HCR
attr processid 10008
attr repetition 0
attr replication #0
attr resultdir results
attr runnumber 0
attr seedset 0

scalar HCR.sink 	"TotalEnergy: " 	1413278891461.2
version 2
run General-0-20180526-16:01:01-14384
attr configname General
attr datetime 20180526-16:01:01
attr experiment General
attr inifile omnetpp.ini
attr iterationvars ""
attr iterationvars2 $repetition=0
attr measurement ""
attr network HCR
attr processid 14384
attr repetition 0
attr replication #0
attr resultdir results
attr runnumber 0
attr seedset 0

scalar HCR.sink 	"TotalEnergy: " 	3.6305857585108e+014
version 2
run General-0-20180526-16:03:26-6268
attr configname General
attr datetime 20180526-16:03:26
attr experiment General
attr inifile omnetpp.ini
attr iterationvars ""
attr iterationvars2 $repetition=0
attr measurement ""
attr network HCR
attr processid 6268
attr repetition 0
attr replication #0
attr resultdir results
attr runnumber 0
attr seedset 0

scalar HCR.sink 	"TotalEnergy: " 	2101311506985.4
version 2
run General-0-20180526-16:08:35-6480
attr configname General
attr datetime 20180526-16:08:35
attr experiment General
attr inifile omnetpp.ini
attr iterationvars ""
attr iterationvars2 $repetition=0
attr measurement ""
attr network HCR
attr processid 6480
attr repetition 0
attr replication #0
attr resultdir results
attr runnumber 0
attr seedset 0

scalar HCR.sink 	"TotalEnergy: " 	82713278306393
version 2
run General-0-20180526-16:23:17-2204
attr configname General
attr datetime 20180526-16:23:17
attr experiment General
attr inifile omnetpp.ini
attr iterationvars ""
attr iterationvars2 $repetition=0
attr measurement ""
attr network HCR
attr processid 2204
attr repetition 0
attr replication #0
attr resultdir results
attr runnumber 0
attr seedset 0

scalar HCR.sink 	"TotalEnergy: " 	12238451203014
version 2
run General-0-20180526-17:33:12-10244
attr configname General
attr datetime 20180526-17:33:12
attr experiment General
attr inifile omnetpp.ini
attr iterationvars ""
attr iterationvars2 $repetition=0
attr measurement ""
attr network HCR
attr processid 10244
attr repetition 0
attr replication #0
attr resultdir results
attr runnumber 0
attr seedset 0

scalar HCR.sink 	"TotalEnergy: " 	1756707517380.5
version 2
run General-0-20180526-17:35:56-2752
attr configname General
attr datetime 20180526-17:35:56
attr experiment General
attr inifile omnetpp.ini
attr iterationvars ""
attr iterationvars2 $repetition=0
attr measurement ""
attr network HCR
attr processid 2752
attr repetition 0
attr replication #0
attr resultdir results
attr runnumber 0
attr seedset 0

scalar HCR.sink 	"TotalEnergy: " 	1910483625225.1
version 2
run General-0-20180526-17:42:03-13832
attr configname General
attr datetime 20180526-17:42:03
attr experiment General
attr inifile omnetpp.ini
attr iterationvars ""
attr iterationvars2 $repetition=0
attr measurement ""
attr network HCR
attr processid 13832
attr repetition 0
attr replication #0
attr resultdir results
attr runnumber 0
attr seedset 0

scalar HCR.sink 	"TotalEnergy: " 	1910483625225.1
version 2
run General-0-20180526-17:54:26-6420
attr configname General
attr datetime 20180526-17:54:26
attr experiment General
attr inifile omnetpp.ini
attr iterationvars ""
attr iterationvars2 $repetition=0
attr measurement ""
attr network HCR
attr processid 6420
attr repetition 0
attr replication #0
attr resultdir results
attr runnumber 0
attr seedset 0

scalar HCR.sink 	"TotalEnergy: " 	4414091613737
version 2
run General-0-20180526-18:00:35-2920
attr configname General
attr datetime 20180526-18:00:35
attr experiment General
attr inifile omnetpp.ini
attr iterationvars ""
attr iterationvars2 $repetition=0
attr measurement ""
attr network HCR
attr processid 2920
attr repetition 0
attr replication #0
attr resultdir results
attr runnumber 0
attr seedset 0

scalar HCR.sink 	"TotalEnergy: " 	4848254800036.4
version 2
run General-0-20180526-18:19:39-3544
attr configname General
attr datetime 20180526-18:19:39
attr experiment General
attr inifile omnetpp.ini
attr iterationvars ""
attr iterationvars2 $repetition=0
attr measurement ""
attr network HCR
attr processid 3544
attr repetition 0
attr replication #0
attr resultdir results
attr runnumber 0
attr seedset 0

scalar HCR.sink 	"TotalEnergy: " 	4414091613737
version 2
run General-0-20180526-19:41:59-8080
attr configname General
attr datetime 20180526-19:41:59
attr experiment General
attr inifile omnetpp.ini
attr iterationvars ""
attr iterationvars2 $repetition=0
attr measurement ""
attr network HCR
attr processid 8080
attr repetition 0
attr replication #0
attr resultdir results
attr runnumber 0
attr seedset 0

scalar HCR.sink 	"TotalEnergy: " 	2368979214035.3
version 2
run General-0-20180526-19:54:58-11532
attr configname General
attr datetime 20180526-19:54:58
attr experiment General
attr inifile omnetpp.ini
attr iterationvars ""
attr iterationvars2 $repetition=0
attr measurement ""
attr network HCR
attr processid 11532
attr repetition 0
attr replication #0
attr resultdir results
attr runnumber 0
attr seedset 0

scalar HCR.sink 	"TotalEnergy: " 	2368979214035.3
version 2
run General-0-20180526-19:58:34-15988
attr configname General
attr datetime 20180526-19:58:34
attr experiment General
attr inifile omnetpp.ini
attr iterationvars ""
attr iterationvars2 $repetition=0
attr measurement ""
attr network HCR
attr processid 15988
attr repetition 0
attr replication #0
attr resultdir results
attr runnumber 0
attr seedset 0

scalar HCR.sink 	"TotalEnergy: " 	2145617888769.8
version 2
run General-0-20180526-20:02:55-4812
attr configname General
attr datetime 20180526-20:02:55
attr experiment General
attr inifile omnetpp.ini
attr iterationvars ""
attr iterationvars2 $repetition=0
attr measurement ""
attr network HCR
attr processid 4812
attr repetition 0
attr replication #0
attr resultdir results
attr runnumber 0
attr seedset 0

scalar HCR.sink 	"TotalEnergy: " 	2553013532833.7
version 2
run General-0-20180526-20:06:05-11912
attr configname General
attr datetime 20180526-20:06:05
attr experiment General
attr inifile omnetpp.ini
attr iterationvars ""
attr iterationvars2 $repetition=0
attr measurement ""
attr network HCR
attr processid 11912
attr repetition 0
attr replication #0
attr resultdir results
attr runnumber 0
attr seedset 0

scalar HCR.sink 	"TotalEnergy: " 	2467037403006.2
version 2
run General-0-20180526-20:11:21-7904
attr configname General
attr datetime 20180526-20:11:21
attr experiment General
attr inifile omnetpp.ini
attr iterationvars ""
attr iterationvars2 $repetition=0
attr measurement ""
attr network HCR
attr processid 7904
attr repetition 0
attr replication #0
attr resultdir results
attr runnumber 0
attr seedset 0

scalar HCR.sink 	"TotalEnergy: " 	4257518051831.2
version 2
run General-0-20180526-20:16:53-10548
attr configname General
attr datetime 20180526-20:16:53
attr experiment General
attr inifile omnetpp.ini
attr iterationvars ""
attr iterationvars2 $repetition=0
attr measurement ""
attr network HCR
attr processid 10548
attr repetition 0
attr replication #0
attr resultdir results
attr runnumber 0
attr seedset 0

scalar HCR.sink 	"TotalEnergy: " 	3814907785409.4
version 2
run General-0-20180526-20:22:24-4364
attr configname General
attr datetime 20180526-20:22:24
attr experiment General
attr inifile omnetpp.ini
attr iterationvars ""
attr iterationvars2 $repetition=0
attr measurement ""
attr network HCR
attr processid 4364
attr repetition 0
attr replication #0
attr resultdir results
attr runnumber 0
attr seedset 0

scalar HCR.sink 	"TotalEnergy: " 	4655370265511.2
version 2
run General-0-20180526-21:15:43-7232
attr configname General
attr datetime 20180526-21:15:43
attr experiment General
attr inifile omnetpp.ini
attr iterationvars ""
attr iterationvars2 $repetition=0
attr measurement ""
attr network HCR
attr processid 7232
attr repetition 0
attr replication #0
attr resultdir results
attr runnumber 0
attr seedset 0

scalar HCR.sink 	"TotalEnergy: " 	4280973930262.2
version 2
run General-0-20180526-21:28:33-11064
attr configname General
attr datetime 20180526-21:28:33
attr experiment General
attr inifile omnetpp.ini
attr iterationvars ""
attr iterationvars2 $repetition=0
attr measurement ""
attr network HCR
attr processid 11064
attr repetition 0
attr replication #0
attr resultdir results
attr runnumber 0
attr seedset 0

scalar HCR.sink 	"TotalEnergy: " 	76219441658539
version 2
run General-0-20180526-21:36:52-14372
attr configname General
attr datetime 20180526-21:36:52
attr experiment General
attr inifile omnetpp.ini
attr iterationvars ""
attr iterationvars2 $repetition=0
attr measurement ""
attr network HCR
attr processid 14372
attr repetition 0
attr replication #0
attr resultdir results
attr runnumber 0
attr seedset 0

scalar HCR.sink 	"TotalEnergy: " 	70768052528808
version 2
run General-0-20180526-21:44:49-13044
attr configname General
attr datetime 20180526-21:44:49
attr experiment General
attr inifile omnetpp.ini
attr iterationvars ""
attr iterationvars2 $repetition=0
attr measurement ""
attr network HCR
attr processid 13044
attr repetition 0
attr replication #0
attr resultdir results
attr runnumber 0
attr seedset 0

scalar HCR.sink 	"TotalEnergy: " 	25338706779425
version 2
run General-0-20180526-21:48:04-13212
attr configname General
attr datetime 20180526-21:48:04
attr experiment General
attr inifile omnetpp.ini
attr iterationvars ""
attr iterationvars2 $repetition=0
attr measurement ""
attr network HCR
attr processid 13212
attr repetition 0
attr replication #0
attr resultdir results
attr runnumber 0
attr seedset 0

scalar HCR.sink 	"TotalEnergy: " 	25292499640875
version 2
run General-0-20180527-10:54:00-2040
attr configname General
attr datetime 20180527-10:54:00
attr experiment General
attr inifile omnetpp.ini
attr iterationvars ""
attr iterationvars2 $repetition=0
attr measurement ""
attr network HCR
attr processid 2040
attr repetition 0
attr replication #0
attr resultdir results
attr runnumber 0
attr seedset 0

scalar HCR.sink 	"TotalEnergy: " 	25292499640875
version 2
run General-0-20180527-11:08:12-11304
attr configname General
attr datetime 20180527-11:08:12
attr experiment General
attr inifile omnetpp.ini
attr iterationvars ""
attr iterationvars2 $repetition=0
attr measurement ""
attr network HCR
attr processid 11304
attr repetition 0
attr replication #0
attr resultdir results
attr runnumber 0
attr seedset 0

scalar HCR.sink 	"TotalEnergy: " 	74913188852488
version 2
run General-0-20180527-11:18:48-6960
attr configname General
attr datetime 20180527-11:18:48
attr experiment General
attr inifile omnetpp.ini
attr iterationvars ""
attr iterationvars2 $repetition=0
attr measurement ""
attr network HCR
attr processid 6960
attr repetition 0
attr replication #0
attr resultdir results
attr runnumber 0
attr seedset 0

scalar HCR.sink 	"TotalEnergy: " 	74504812881662
version 2
run General-0-20180527-11:24:38-14936
attr configname General
attr datetime 20180527-11:24:38
attr experiment General
attr inifile omnetpp.ini
attr iterationvars ""
attr iterationvars2 $repetition=0
attr measurement ""
attr network HCR
attr processid 14936
attr repetition 0
attr replication #0
attr resultdir results
attr runnumber 0
attr seedset 0

scalar HCR.sink 	"TotalEnergy: " 	74913188852488
version 2
run General-0-20180527-11:34:00-14996
attr configname General
attr datetime 20180527-11:34:00
attr experiment General
attr inifile omnetpp.ini
attr iterationvars ""
attr iterationvars2 $repetition=0
attr measurement ""
attr network HCR
attr processid 14996
attr repetition 0
attr replication #0
attr resultdir results
attr runnumber 0
attr seedset 0

scalar HCR.sink 	"TotalEnergy: " 	74913188852488
version 2
run General-0-20180527-11:39:27-13372
attr configname General
attr datetime 20180527-11:39:27
attr experiment General
attr inifile omnetpp.ini
attr iterationvars ""
attr iterationvars2 $repetition=0
attr measurement ""
attr network HCR
attr processid 13372
attr repetition 0
attr replication #0
attr resultdir results
attr runnumber 0
attr seedset 0

scalar HCR.sink 	"TotalEnergy: " 	74913188852488
version 2
run General-0-20180527-13:44:40-1552
attr configname General
attr datetime 20180527-13:44:40
attr experiment General
attr inifile omnetpp.ini
attr iterationvars ""
attr iterationvars2 $repetition=0
attr measurement ""
attr network HCR
attr processid 1552
attr repetition 0
attr replication #0
attr resultdir results
attr runnumber 0
attr seedset 0

scalar HCR.sink 	"TotalEnergy: " 	1.2645482006174e+014
version 2
run General-0-20180527-14:28:08-6600
attr configname General
attr datetime 20180527-14:28:08
attr experiment General
attr inifile omnetpp.ini
attr iterationvars ""
attr iterationvars2 $repetition=0
attr measurement ""
attr network HCR
attr processid 6600
attr repetition 0
attr replication #0
attr resultdir results
attr runnumber 0
attr seedset 0

scalar HCR.sink 	"TotalEnergy: " 	1.264908138637e+014
version 2
run General-0-20180527-14:40:36-14828
attr configname General
attr datetime 20180527-14:40:36
attr experiment General
attr inifile omnetpp.ini
attr iterationvars ""
attr iterationvars2 $repetition=0
attr measurement ""
attr network HCR
attr processid 14828
attr repetition 0
attr replication #0
attr resultdir results
attr runnumber 0
attr seedset 0

scalar HCR.sink 	"TotalEnergy: " 	75753900780609
version 2
run General-0-20180527-14:51:02-1216
attr configname General
attr datetime 20180527-14:51:02
attr experiment General
attr inifile omnetpp.ini
attr iterationvars ""
attr iterationvars2 $repetition=0
attr measurement ""
attr network HCR
attr processid 1216
attr repetition 0
attr replication #0
attr resultdir results
attr runnumber 0
attr seedset 0

scalar HCR.sink 	"TotalEnergy: " 	25292499640875
version 2
run General-0-20180527-15:23:17-8820
attr configname General
attr datetime 20180527-15:23:17
attr experiment General
attr inifile omnetpp.ini
attr iterationvars ""
attr iterationvars2 $repetition=0
attr measurement ""
attr network HCR
attr processid 8820
attr repetition 0
attr replication #0
attr resultdir results
attr runnumber 0
attr seedset 0

scalar HCR.sink 	"TotalEnergy: " 	25338706779425
version 2
run General-0-20180604-11:39:15-12668
attr configname General
attr datetime 20180604-11:39:15
attr experiment General
attr inifile omnetpp.ini
attr iterationvars ""
attr iterationvars2 $repetition=0
attr measurement ""
attr network HCR
attr processid 12668
attr repetition 0
attr replication #0
attr resultdir results
attr runnumber 0
attr seedset 0

scalar HCR.sink 	"TotalEnergy: " 	25338706779425
version 2
run General-0-20180604-11:42:46-1268
attr configname General
attr datetime 20180604-11:42:46
attr experiment General
attr inifile omnetpp.ini
attr iterationvars ""
attr iterationvars2 $repetition=0
attr measurement ""
attr network HCR
attr processid 1268
attr repetition 0
attr replication #0
attr resultdir results
attr runnumber 0
attr seedset 0

scalar HCR.sink 	"TotalEnergy: " 	25292499640875
version 2
run General-0-20180604-12:58:43-12456
attr configname General
attr datetime 20180604-12:58:43
attr experiment General
attr inifile omnetpp.ini
attr iterationvars ""
attr iterationvars2 $repetition=0
attr measurement ""
attr network HCR
attr processid 12456
attr repetition 0
attr replication #0
attr resultdir results
attr runnumber 0
attr seedset 0

scalar HCR.sink 	"TotalEnergy: " 	20772370456738
version 2
run General-0-20180604-13:02:26-5092
attr configname General
attr datetime 20180604-13:02:26
attr experiment General
attr inifile omnetpp.ini
attr iterationvars ""
attr iterationvars2 $repetition=0
attr measurement ""
attr network HCR
attr processid 5092
attr repetition 0
attr replication #0
attr resultdir results
attr runnumber 0
attr seedset 0

scalar HCR.sink 	"TotalEnergy: " 	25292499640875
version 2
run General-0-20180604-13:57:36-10896
attr configname General
attr datetime 20180604-13:57:36
attr experiment General
attr inifile omnetpp.ini
attr iterationvars ""
attr iterationvars2 $repetition=0
attr measurement ""
attr network HCR
attr processid 10896
attr repetition 0
attr replication #0
attr resultdir results
attr runnumber 0
attr seedset 0

scalar HCR.sink 	"TotalEnergy: " 	25292499640875
version 2
run General-0-20180604-14:11:05-8932
attr configname General
attr datetime 20180604-14:11:05
attr experiment General
attr inifile omnetpp.ini
attr iterationvars ""
attr iterationvars2 $repetition=0
attr measurement ""
attr network HCR
attr processid 8932
attr repetition 0
attr replication #0
attr resultdir results
attr runnumber 0
attr seedset 0

scalar HCR.sink 	"TotalEnergy: " 	25292499640875
version 2
run General-0-20180604-14:13:55-15292
attr configname General
attr datetime 20180604-14:13:55
attr experiment General
attr inifile omnetpp.ini
attr iterationvars ""
attr iterationvars2 $repetition=0
attr measurement ""
attr network HCR
attr processid 15292
attr repetition 0
attr replication #0
attr resultdir results
attr runnumber 0
attr seedset 0

scalar HCR.sink 	"TotalEnergy: " 	25338706779425
version 2
run General-0-20180604-20:52:01-1152
attr configname General
attr datetime 20180604-20:52:01
attr experiment General
attr inifile omnetpp.ini
attr iterationvars ""
attr iterationvars2 $repetition=0
attr measurement ""
attr network HCR
attr processid 1152
attr repetition 0
attr replication #0
attr resultdir results
attr runnumber 0
attr seedset 0

scalar HCR.sink 	"TotalEnergy: " 	3814907785409.4
